
     RDKit          2D

 72 81  0  0  0  0  0  0  0  0999 V2000
   -1.9605    4.6312    0.0000 O   0  0  0  0  0  0  0  0  0  0  0  0
   -3.2463    3.8586    0.0000 C   0  0  0  0  0  0  0  0  0  0  0  0
   -3.4031    2.3668    0.0000 N   0  0  0  0  0  0  0  0  0  0  0  0
   -2.1895    1.4851    0.0000 C   0  0  0  0  0  0  0  0  0  0  0  0
   -0.8192    2.0952    0.0000 C   0  0  0  0  0  0  0  0  0  0  0  0
    0.3943    1.2135    0.0000 C   0  0  0  0  0  0  0  0  0  0  0  0
    1.2760    0.0000    0.0000 C   0  0  0  0  0  0  0  0  0  0  0  0
    0.3943   -1.2135    0.0000 C   0  0  0  0  0  0  0  0  0  0  0  0
   -1.0323   -0.7500    0.0000 C   0  0  0  0  0  0  0  0  0  0  0  0
   -2.3463   -0.0067    0.0000 C   0  0  0  0  0  0  0  0  0  0  0  0
   -1.0323    0.7500    0.0000 N   0  0  0  0  0  0  0  0  0  0  0  0
   -2.2458    1.6317    0.0000 C   0  0  0  0  0  0  0  0  0  0  0  0
   -2.0890    3.1235    0.0000 C   0  0  0  0  0  0  0  0  0  0  0  0
   -3.3025    4.0051    0.0000 C   0  0  0  0  0  0  0  0  0  0  0  0
   -3.1458    5.4969    0.0000 C   0  0  0  0  0  0  0  0  0  0  0  0
   -4.3593    6.3786    0.0000 C   0  0  0  0  0  0  0  0  0  0  0  0
   -5.7296    5.7685    0.0000 C   0  0  0  0  0  0  0  0  0  0  0  0
   -5.8864    4.2767    0.0000 C   0  0  0  0  0  0  0  0  0  0  0  0
   -4.6729    3.3950    0.0000 C   0  0  0  0  0  0  0  0  0  0  0  0
   -4.4598    4.7402    0.0000 C   0  0  0  0  0  0  0  0  0  0  0  0
   -4.3030    6.2320    0.0000 C   0  0  0  0  0  0  0  0  0  0  0  0
   -5.5165    7.1137    0.0000 C   0  0  0  0  0  0  0  0  0  0  0  0
   -6.8869    6.5036    0.0000 C   0  0  0  0  0  0  0  0  0  0  0  0
   -7.0436    5.0118    0.0000 C   0  0  0  0  0  0  0  0  0  0  0  0
   -5.8301    4.1301    0.0000 C   0  0  0  0  0  0  0  0  0  0  0  0
   -5.6733    5.6219    0.0000 C   0  0  0  0  0  0  0  0  0  0  0  0
   -4.4598    4.7402    0.0000 C   0  0  0  0  0  0  0  0  0  0  0  0
   -3.2778    5.6638    0.0000 O   0  0  0  0  0  0  0  0  0  0  0  0
   -4.6166    3.2485    0.0000 N   0  0  0  0  0  0  0  0  0  0  0  0
   -3.4031    2.3668    0.0000 C   0  0  0  0  0  0  0  0  0  0  0  0
   -3.5599    0.8750    0.0000 C   0  0  0  0  0  0  0  0  0  0  0  0
   -2.3463   -0.0067    0.0000 C   0  0  0  0  0  0  0  0  0  0  0  0
   -2.5031   -1.4985    0.0000 C   0  0  0  0  0  0  0  0  0  0  0  0
   -1.2896   -2.3801    0.0000 C   0  0  0  0  0  0  0  0  0  0  0  0
    0.0807   -1.7700    0.0000 C   0  0  0  0  0  0  0  0  0  0  0  0
    0.2375   -0.2783    0.0000 C   0  0  0  0  0  0  0  0  0  0  0  0
   -0.9760    0.6034    0.0000 C   0  0  0  0  0  0  0  0  0  0  0  0
   -2.0328    2.9769    0.0000 C   0  0  0  0  0  0  0  0  0  0  0  0
   -1.6953    4.4384    0.0000 O   0  0  0  0  0  0  0  0  0  0  0  0
   -0.8192    2.0952    0.0000 N   0  0  0  0  0  0  0  0  0  0  0  0
    0.5511    2.7053    0.0000 C   0  0  0  0  0  0  0  0  0  0  0  0
    1.7646    1.8236    0.0000 C   0  0  0  0  0  0  0  0  0  0  0  0
    3.1349    2.4337    0.0000 C   0  0  0  0  0  0  0  0  0  0  0  0
    3.2917    3.9255    0.0000 C   0  0  0  0  0  0  0  0  0  0  0  0
    2.0782    4.8072    0.0000 C   0  0  0  0  0  0  0  0  0  0  0  0
    0.7079    4.1971    0.0000 C   0  0  0  0  0  0  0  0  0  0  0  0
    1.9214    3.3154    0.0000 C   0  0  0  0  0  0  0  0  0  0  0  0
    0.5511    2.7053    0.0000 C   0  0  0  0  0  0  0  0  0  0  0  0
    0.7599    1.2199    0.0000 O   0  0  0  0  0  0  0  0  0  0  0  0
   -0.6624    3.5870    0.0000 N   0  0  0  0  0  0  0  0  0  0  0  0
   -2.0328    2.9769    0.0000 C   0  0  0  0  0  0  0  0  0  0  0  0
   -3.2463    3.8586    0.0000 C   0  0  0  0  0  0  0  0  0  0  0  0
   -4.6166    3.2485    0.0000 C   0  0  0  0  0  0  0  0  0  0  0  0
   -5.8301    4.1301    0.0000 C   0  0  0  0  0  0  0  0  0  0  0  0
   -7.2004    3.5200    0.0000 C   0  0  0  0  0  0  0  0  0  0  0  0
   -7.3572    2.0282    0.0000 C   0  0  0  0  0  0  0  0  0  0  0  0
   -6.1437    1.1466    0.0000 C   0  0  0  0  0  0  0  0  0  0  0  0
   -4.7734    1.7567    0.0000 C   0  0  0  0  0  0  0  0  0  0  0  0
   -2.1895    1.4851    0.0000 C   0  0  0  0  0  0  0  0  0  0  0  0
   -0.7041    1.2765    0.0000 O   0  0  0  0  0  0  0  0  0  0  0  0
   -3.5599    0.8750    0.0000 N   0  0  0  0  0  0  0  0  0  0  0  0
   -3.7167   -0.6168    0.0000 C   0  0  0  0  0  0  0  0  0  0  0  0
   -5.0870   -1.2269    0.0000 C   0  0  0  0  0  0  0  0  0  0  0  0
   -5.2438   -2.7187    0.0000 C   0  0  0  0  0  0  0  0  0  0  0  0
   -6.6141   -3.3288    0.0000 C   0  0  0  0  0  0  0  0  0  0  0  0
   -6.7709   -4.8206    0.0000 C   0  0  0  0  0  0  0  0  0  0  0  0
   -5.5574   -5.7022    0.0000 C   0  0  0  0  0  0  0  0  0  0  0  0
   -4.1870   -5.0921    0.0000 C   0  0  0  0  0  0  0  0  0  0  0  0
   -4.0302   -3.6004    0.0000 C   0  0  0  0  0  0  0  0  0  0  0  0
   -2.5031   -1.4985    0.0000 C   0  0  0  0  0  0  0  0  0  0  0  0
   -1.0259   -1.2381    0.0000 O   0  0  0  0  0  0  0  0  0  0  0  0
   -2.6599   -2.9903    0.0000 O   0  0  0  0  0  0  0  0  0  0  0  0
  1  2  2  0
  2  3  1  0
  3  4  1  0
  4  5  1  0
  5  6  1  0
  6  7  1  0
  7  8  1  0
  8  9  1  0
  9 10  1  0
  9 11  1  0
 11 12  1  0
 12 13  1  0
 13 14  1  0
 14 15  2  0
 15 16  1  0
 16 17  2  0
 17 18  1  0
 18 19  2  0
  2 20  1  0
 20 21  1  0
 21 22  1  0
 22 23  1  0
 23 24  1  0
 24 25  1  0
 24 26  1  0
 26 27  1  0
 27 28  2  0
 27 29  1  0
 29 30  1  0
 30 31  1  0
 31 32  1  0
 32 33  2  0
 33 34  1  0
 34 35  2  0
 35 36  1  0
 36 37  2  0
 30 38  1  0
 38 39  2  0
 38 40  1  0
 40 41  1  0
 41 42  1  0
 42 43  1  0
 43 44  1  0
 44 45  1  0
 45 46  1  0
 45 47  1  0
 47 48  1  0
 48 49  2  0
 48 50  1  0
 50 51  1  0
 51 52  1  0
 52 53  1  0
 53 54  2  0
 54 55  1  0
 55 56  2  0
 56 57  1  0
 57 58  2  0
 51 59  1  0
 59 60  2  0
 59 61  1  0
 61 62  1  0
 62 63  1  0
 63 64  1  0
 64 65  2  0
 65 66  1  0
 66 67  2  0
 67 68  1  0
 68 69  2  0
 62 70  1  0
 70 71  2  0
 70 72  1  0
 10  4  1  0
 19 14  1  0
 25 20  1  0
 37 32  1  0
 46 41  1  0
 58 53  1  0
 69 64  1  0
 11  6  1  0
 26 22  1  0
 47 43  1  0
M  END
>  <Title>  (1) 
idAAGOgen6

$$$$

     RDKit          2D

 28 29  0  0  0  0  0  0  0  0999 V2000
    4.3978   -1.5000    0.0000 C   0  0  0  0  0  0  0  0  0  0  0  0
    4.3978    0.0000    0.0000 C   0  0  0  0  0  0  0  0  0  0  0  0
    4.5623    1.3399    0.0000 C   0  0  0  0  0  0  0  0  0  0  0  0
    5.8978    0.0000    0.0000 C   0  0  0  0  0  0  0  0  0  0  0  0
    2.8978    0.0000    0.0000 C   0  0  0  0  0  0  0  0  0  0  0  0
    2.5095   -1.4489    0.0000 C   0  0  0  0  0  0  0  0  0  0  0  0
    1.4489   -2.5095    0.0000 C   0  0  0  0  0  0  0  0  0  0  0  0
   -0.0000   -2.8978    0.0000 C   0  0  0  0  0  0  0  0  0  0  0  0
   -0.0000   -4.3978    0.0000 C   0  0  0  0  0  0  0  0  0  0  0  0
    1.3515   -5.0486    0.0000 C   0  0  0  0  0  0  0  0  0  0  0  0
    1.6852   -6.5110    0.0000 C   0  0  0  0  0  0  0  0  0  0  0  0
    0.7500   -7.6837    0.0000 C   0  0  0  0  0  0  0  0  0  0  0  0
   -0.7500   -7.6837    0.0000 C   0  0  0  0  0  0  0  0  0  0  0  0
   -1.6852   -6.5110    0.0000 C   0  0  0  0  0  0  0  0  0  0  0  0
   -1.3515   -5.0486    0.0000 C   0  0  0  0  0  0  0  0  0  0  0  0
   -2.8515   -5.0486    0.0000 C   0  0  0  0  0  0  0  0  0  0  0  0
   -1.6852   -3.5862    0.0000 C   0  0  0  0  0  0  0  0  0  0  0  0
   -1.4489   -2.5095    0.0000 C   0  0  0  0  0  0  0  0  0  0  0  0
   -2.5095   -1.4489    0.0000 C   0  0  0  0  0  0  0  0  0  0  0  0
   -2.8978    0.0000    0.0000 C   0  0  0  0  0  0  0  0  0  0  0  0
   -2.5095    1.4489    0.0000 C   0  0  0  0  0  0  0  0  0  0  0  0
   -3.8086    2.1989    0.0000 O   0  0  0  0  0  0  0  0  0  0  0  0
   -1.4489    2.5095    0.0000 C   0  0  0  0  0  0  0  0  0  0  0  0
    0.0000    2.8978    0.0000 C   0  0  0  0  0  0  0  0  0  0  0  0
    1.4489    2.5095    0.0000 C   0  0  0  0  0  0  0  0  0  0  0  0
    2.5095    1.4489    0.0000 C   0  0  0  0  0  0  0  0  0  0  0  0
    3.1435    2.8084    0.0000 C   0  0  0  0  0  0  0  0  0  0  0  0
    3.8587    1.4960    0.0000 C   0  0  0  0  0  0  0  0  0  0  0  0
  1  2  1  0
  2  3  1  0
  2  4  1  0
  2  5  1  0
  5  6  1  0
  6  7  1  0
  7  8  1  0
  8  9  1  0
  9 10  1  0
 10 11  1  0
 11 12  1  0
 12 13  1  0
 13 14  1  0
 14 15  1  0
 15 16  1  0
 15 17  1  0
  8 18  1  0
 18 19  1  0
 19 20  1  0
 20 21  1  0
 21 22  1  0
 21 23  1  0
 23 24  1  0
 24 25  1  0
 25 26  1  0
 26 27  1  0
 26 28  1  0
 26  5  1  0
 15  9  1  0
M  END
>  <Title>  (2) 
idAAGPgen6

$$$$

     RDKit          2D

 21 23  0  0  0  0  0  0  0  0999 V2000
    2.6491    0.9642    0.0000 C   0  0  0  0  0  0  0  0  0  0  0  0
    1.5000    0.0000    0.0000 C   0  0  0  0  0  0  0  0  0  0  0  0
    2.6491   -0.9642    0.0000 C   0  0  0  0  0  0  0  0  0  0  0  0
    0.7500   -1.2990    0.0000 C   0  0  0  0  0  0  0  0  0  0  0  0
   -0.7500   -1.2990    0.0000 C   0  0  0  0  0  0  0  0  0  0  0  0
   -1.5000    0.0000    0.0000 C   0  0  0  0  0  0  0  0  0  0  0  0
   -0.7500    1.2990    0.0000 C   0  0  0  0  0  0  0  0  0  0  0  0
   -2.2500    1.2990    0.0000 C   0  0  0  0  0  0  0  0  0  0  0  0
   -1.5000    2.5981    0.0000 C   0  0  0  0  0  0  0  0  0  0  0  0
   -3.0000    2.5981    0.0000 C   0  0  0  0  0  0  0  0  0  0  0  0
   -3.7500    3.8971    0.0000 C   0  0  0  0  0  0  0  0  0  0  0  0
   -5.2500    3.8971    0.0000 C   0  0  0  0  0  0  0  0  0  0  0  0
   -6.0000    5.1962    0.0000 C   0  0  0  0  0  0  0  0  0  0  0  0
   -7.5000    5.1962    0.0000 C   0  0  0  0  0  0  0  0  0  0  0  0
   -8.2500    3.8971    0.0000 C   0  0  0  0  0  0  0  0  0  0  0  0
   -7.5000    2.5981    0.0000 C   0  0  0  0  0  0  0  0  0  0  0  0
   -6.0000    2.5981    0.0000 C   0  0  0  0  0  0  0  0  0  0  0  0
   -0.7500    3.8971    0.0000 C   0  0  0  0  0  0  0  0  0  0  0  0
    0.7500    3.8971    0.0000 C   0  0  0  0  0  0  0  0  0  0  0  0
    1.5000    2.5981    0.0000 C   0  0  0  0  0  0  0  0  0  0  0  0
    0.7500    1.2990    0.0000 C   0  0  0  0  0  0  0  0  0  0  0  0
  1  2  1  0
  2  3  1  0
  2  4  1  0
  4  5  1  0
  5  6  1  0
  6  7  1  0
  7  8  1  0
  7  9  1  0
  9 10  1  0
 10 11  1  0
 11 12  1  0
 12 13  1  0
 13 14  1  0
 14 15  1  0
 15 16  1  0
 16 17  1  0
  9 18  1  0
 18 19  1  0
 19 20  1  0
 20 21  1  0
 21  2  1  0
 21  7  1  0
 17 12  1  0
M  END
>  <Title>  (3) 
idAAGQgen6

$$$$

     RDKit          2D

 63 70  0  0  0  0  0  0  0  0999 V2000
   -4.6528   -2.6992    0.0000 O   0  0  0  0  0  0  0  0  0  0  0  0
   -3.7500   -3.8971    0.0000 C   0  0  0  0  0  0  0  0  0  0  0  0
   -2.2500   -3.8971    0.0000 N   0  0  0  0  0  0  0  0  0  0  0  0
   -1.5000   -2.5981    0.0000 C   0  0  0  0  0  0  0  0  0  0  0  0
   -0.0000   -2.5981    0.0000 C   0  0  0  0  0  0  0  0  0  0  0  0
    0.7500   -1.2990    0.0000 C   0  0  0  0  0  0  0  0  0  0  0  0
    1.5000    0.0000    0.0000 C   0  0  0  0  0  0  0  0  0  0  0  0
    0.7500    1.2990    0.0000 C   0  0  0  0  0  0  0  0  0  0  0  0
   -0.7500    1.2990    0.0000 C   0  0  0  0  0  0  0  0  0  0  0  0
   -1.5000    0.0000    0.0000 C   0  0  0  0  0  0  0  0  0  0  0  0
   -2.2500   -1.2990    0.0000 C   0  0  0  0  0  0  0  0  0  0  0  0
   -0.7500   -1.2990    0.0000 N   0  0  0  0  0  0  0  0  0  0  0  0
   -1.5000   -2.5981    0.0000 C   0  0  0  0  0  0  0  0  0  0  0  0
   -3.0000   -2.5981    0.0000 C   0  0  0  0  0  0  0  0  0  0  0  0
   -3.7500   -3.8971    0.0000 C   0  0  0  0  0  0  0  0  0  0  0  0
   -5.2500   -3.8971    0.0000 C   0  0  0  0  0  0  0  0  0  0  0  0
   -6.0000   -5.1962    0.0000 C   0  0  0  0  0  0  0  0  0  0  0  0
   -5.2500   -6.4952    0.0000 C   0  0  0  0  0  0  0  0  0  0  0  0
   -3.7500   -6.4952    0.0000 C   0  0  0  0  0  0  0  0  0  0  0  0
   -3.0000   -5.1962    0.0000 C   0  0  0  0  0  0  0  0  0  0  0  0
   -4.5000   -5.1962    0.0000 C   0  0  0  0  0  0  0  0  0  0  0  0
   -6.0000   -5.1962    0.0000 C   0  0  0  0  0  0  0  0  0  0  0  0
   -6.7500   -6.4952    0.0000 C   0  0  0  0  0  0  0  0  0  0  0  0
   -6.0000   -7.7942    0.0000 C   0  0  0  0  0  0  0  0  0  0  0  0
   -4.5000   -7.7942    0.0000 C   0  0  0  0  0  0  0  0  0  0  0  0
   -3.7500   -6.4952    0.0000 C   0  0  0  0  0  0  0  0  0  0  0  0
   -5.2500   -6.4952    0.0000 C   0  0  0  0  0  0  0  0  0  0  0  0
   -4.5000   -5.1962    0.0000 C   0  0  0  0  0  0  0  0  0  0  0  0
   -5.5420   -4.1172    0.0000 O   0  0  0  0  0  0  0  0  0  0  0  0
   -3.0000   -5.1962    0.0000 N   0  0  0  0  0  0  0  0  0  0  0  0
   -2.2500   -3.8971    0.0000 C   0  0  0  0  0  0  0  0  0  0  0  0
   -0.7500   -3.8971    0.0000 C   0  0  0  0  0  0  0  0  0  0  0  0
    0.0000   -2.5981    0.0000 C   0  0  0  0  0  0  0  0  0  0  0  0
    1.5000   -2.5981    0.0000 C   0  0  0  0  0  0  0  0  0  0  0  0
    2.2500   -1.2990    0.0000 C   0  0  0  0  0  0  0  0  0  0  0  0
    1.5000   -0.0000    0.0000 C   0  0  0  0  0  0  0  0  0  0  0  0
    0.0000   -0.0000    0.0000 C   0  0  0  0  0  0  0  0  0  0  0  0
   -0.7500   -1.2990    0.0000 C   0  0  0  0  0  0  0  0  0  0  0  0
   -3.0000   -2.5981    0.0000 C   0  0  0  0  0  0  0  0  0  0  0  0
   -4.4888   -2.4152    0.0000 O   0  0  0  0  0  0  0  0  0  0  0  0
   -2.2500   -1.2990    0.0000 N   0  0  0  0  0  0  0  0  0  0  0  0
   -3.0000   -0.0000    0.0000 C   0  0  0  0  0  0  0  0  0  0  0  0
   -2.2500    1.2990    0.0000 C   0  0  0  0  0  0  0  0  0  0  0  0
   -3.0000    2.5981    0.0000 C   0  0  0  0  0  0  0  0  0  0  0  0
   -2.2500    3.8971    0.0000 C   0  0  0  0  0  0  0  0  0  0  0  0
   -3.0000    5.1962    0.0000 C   0  0  0  0  0  0  0  0  0  0  0  0
   -4.5000    5.1962    0.0000 C   0  0  0  0  0  0  0  0  0  0  0  0
   -5.2500    3.8971    0.0000 C   0  0  0  0  0  0  0  0  0  0  0  0
   -4.5000    2.5981    0.0000 C   0  0  0  0  0  0  0  0  0  0  0  0
   -4.5000   -0.0000    0.0000 C   0  0  0  0  0  0  0  0  0  0  0  0
   -5.2500   -1.2990    0.0000 O   0  0  0  0  0  0  0  0  0  0  0  0
   -5.2500    1.2990    0.0000 N   0  0  0  0  0  0  0  0  0  0  0  0
   -6.7500    1.2990    0.0000 C   0  0  0  0  0  0  0  0  0  0  0  0
   -7.5000    2.5981    0.0000 C   0  0  0  0  0  0  0  0  0  0  0  0
   -9.0000    2.5981    0.0000 C   0  0  0  0  0  0  0  0  0  0  0  0
   -9.7500    3.8971    0.0000 C   0  0  0  0  0  0  0  0  0  0  0  0
  -11.2500    3.8971    0.0000 C   0  0  0  0  0  0  0  0  0  0  0  0
  -12.0000    2.5981    0.0000 C   0  0  0  0  0  0  0  0  0  0  0  0
  -11.2500    1.2990    0.0000 C   0  0  0  0  0  0  0  0  0  0  0  0
   -9.7500    1.2990    0.0000 C   0  0  0  0  0  0  0  0  0  0  0  0
   -7.5000    0.0000    0.0000 C   0  0  0  0  0  0  0  0  0  0  0  0
   -6.7500   -1.2990    0.0000 O   0  0  0  0  0  0  0  0  0  0  0  0
   -9.0000    0.0000    0.0000 O   0  0  0  0  0  0  0  0  0  0  0  0
  1  2  2  0
  2  3  1  0
  3  4  1  0
  4  5  1  0
  5  6  1  0
  6  7  1  0
  7  8  1  0
  8  9  1  0
  9 10  1  0
 10 11  1  0
 10 12  1  0
 12 13  1  0
 13 14  1  0
 14 15  1  0
 15 16  2  0
 16 17  1  0
 17 18  2  0
 18 19  1  0
 19 20  2  0
  2 21  1  0
 21 22  1  0
 22 23  1  0
 23 24  1  0
 24 25  1  0
 25 26  1  0
 25 27  1  0
 27 28  1  0
 28 29  2  0
 28 30  1  0
 30 31  1  0
 31 32  1  0
 32 33  1  0
 33 34  2  0
 34 35  1  0
 35 36  2  0
 36 37  1  0
 37 38  2  0
 31 39  1  0
 39 40  2  0
 39 41  1  0
 41 42  1  0
 42 43  1  0
 43 44  1  0
 44 45  2  0
 45 46  1  0
 46 47  2  0
 47 48  1  0
 48 49  2  0
 42 50  1  0
 50 51  2  0
 50 52  1  0
 52 53  1  0
 53 54  1  0
 54 55  1  0
 55 56  2  0
 56 57  1  0
 57 58  2  0
 58 59  1  0
 59 60  2  0
 53 61  1  0
 61 62  2  0
 61 63  1  0
 11  4  1  0
 20 15  1  0
 26 21  1  0
 38 33  1  0
 49 44  1  0
 60 55  1  0
 12  6  1  0
 27 23  1  0
M  END
>  <Title>  (4) 
idAAGRgen6

$$$$

     RDKit          2D

 57 63  0  0  0  0  0  0  0  0999 V2000
   -0.7500   -3.8971    0.0000 O   0  0  0  0  0  0  0  0  0  0  0  0
    0.7500   -3.8971    0.0000 C   0  0  0  0  0  0  0  0  0  0  0  0
    1.5000   -5.1962    0.0000 N   0  0  0  0  0  0  0  0  0  0  0  0
    0.7500   -6.4952    0.0000 C   0  0  0  0  0  0  0  0  0  0  0  0
    1.5000   -7.7942    0.0000 C   0  0  0  0  0  0  0  0  0  0  0  0
    2.9095   -7.2812    0.0000 C   0  0  0  0  0  0  0  0  0  0  0  0
    4.0586   -8.2454    0.0000 C   0  0  0  0  0  0  0  0  0  0  0  0
    5.4681   -7.7323    0.0000 C   0  0  0  0  0  0  0  0  0  0  0  0
    5.7286   -6.2551    0.0000 C   0  0  0  0  0  0  0  0  0  0  0  0
    4.5796   -5.2910    0.0000 C   0  0  0  0  0  0  0  0  0  0  0  0
    3.1700   -5.8040    0.0000 C   0  0  0  0  0  0  0  0  0  0  0  0
    1.7605   -9.2714    0.0000 C   0  0  0  0  0  0  0  0  0  0  0  0
    0.3509   -8.7584    0.0000 C   0  0  0  0  0  0  0  0  0  0  0  0
    1.5000   -2.5981    0.0000 N   0  0  0  0  0  0  0  0  0  0  0  0
    0.7500   -1.2990    0.0000 C   0  0  0  0  0  0  0  0  0  0  0  0
    1.5000    0.0000    0.0000 C   0  0  0  0  0  0  0  0  0  0  0  0
    0.7500    1.2990    0.0000 C   0  0  0  0  0  0  0  0  0  0  0  0
   -0.7500    1.2990    0.0000 C   0  0  0  0  0  0  0  0  0  0  0  0
   -1.5000    0.0000    0.0000 C   0  0  0  0  0  0  0  0  0  0  0  0
   -0.7500   -1.2990    0.0000 C   0  0  0  0  0  0  0  0  0  0  0  0
   -0.0000   -0.0000    0.0000 C   0  0  0  0  0  0  0  0  0  0  0  0
    0.7500   -1.2990    0.0000 C   0  0  0  0  0  0  0  0  0  0  0  0
    2.2500   -1.2990    0.0000 O   0  0  0  0  0  0  0  0  0  0  0  0
   -0.0000   -2.5981    0.0000 N   0  0  0  0  0  0  0  0  0  0  0  0
    0.7500   -3.8971    0.0000 C   0  0  0  0  0  0  0  0  0  0  0  0
   -0.0000   -5.1962    0.0000 C   0  0  0  0  0  0  0  0  0  0  0  0
    0.7500   -6.4952    0.0000 C   0  0  0  0  0  0  0  0  0  0  0  0
   -0.0000   -7.7942    0.0000 C   0  0  0  0  0  0  0  0  0  0  0  0
    0.7500   -9.0933    0.0000 C   0  0  0  0  0  0  0  0  0  0  0  0
    2.2500   -9.0933    0.0000 C   0  0  0  0  0  0  0  0  0  0  0  0
    3.0000   -7.7942    0.0000 C   0  0  0  0  0  0  0  0  0  0  0  0
    2.2500   -6.4952    0.0000 C   0  0  0  0  0  0  0  0  0  0  0  0
    2.2500   -3.8971    0.0000 C   0  0  0  0  0  0  0  0  0  0  0  0
    3.0000   -2.5981    0.0000 O   0  0  0  0  0  0  0  0  0  0  0  0
    3.0000   -5.1962    0.0000 N   0  0  0  0  0  0  0  0  0  0  0  0
    4.5000   -5.1962    0.0000 C   0  0  0  0  0  0  0  0  0  0  0  0
    5.2500   -6.4952    0.0000 C   0  0  0  0  0  0  0  0  0  0  0  0
    6.7500   -6.4952    0.0000 C   0  0  0  0  0  0  0  0  0  0  0  0
    7.5000   -7.7942    0.0000 C   0  0  0  0  0  0  0  0  0  0  0  0
    9.0000   -7.7942    0.0000 C   0  0  0  0  0  0  0  0  0  0  0  0
    9.7500   -6.4952    0.0000 C   0  0  0  0  0  0  0  0  0  0  0  0
    9.0000   -5.1962    0.0000 C   0  0  0  0  0  0  0  0  0  0  0  0
    7.5000   -5.1962    0.0000 C   0  0  0  0  0  0  0  0  0  0  0  0
    5.2500   -3.8971    0.0000 C   0  0  0  0  0  0  0  0  0  0  0  0
    4.5000   -2.5981    0.0000 O   0  0  0  0  0  0  0  0  0  0  0  0
    6.7500   -3.8971    0.0000 N   0  0  0  0  0  0  0  0  0  0  0  0
    7.5000   -2.5981    0.0000 C   0  0  0  0  0  0  0  0  0  0  0  0
    9.0000   -2.5981    0.0000 C   0  0  0  0  0  0  0  0  0  0  0  0
    9.7500   -1.2990    0.0000 C   0  0  0  0  0  0  0  0  0  0  0  0
   11.2500   -1.2990    0.0000 C   0  0  0  0  0  0  0  0  0  0  0  0
   12.0000   -0.0000    0.0000 C   0  0  0  0  0  0  0  0  0  0  0  0
   11.2500    1.2990    0.0000 C   0  0  0  0  0  0  0  0  0  0  0  0
    9.7500    1.2990    0.0000 C   0  0  0  0  0  0  0  0  0  0  0  0
    9.0000   -0.0000    0.0000 C   0  0  0  0  0  0  0  0  0  0  0  0
    6.7500   -1.2990    0.0000 C   0  0  0  0  0  0  0  0  0  0  0  0
    5.2500   -1.2990    0.0000 O   0  0  0  0  0  0  0  0  0  0  0  0
    7.5000   -0.0000    0.0000 O   0  0  0  0  0  0  0  0  0  0  0  0
  1  2  2  0
  2  3  1  0
  3  4  1  0
  4  5  1  0
  5  6  1  0
  6  7  2  0
  7  8  1  0
  8  9  2  0
  9 10  1  0
 10 11  2  0
  5 12  1  0
 12 13  1  0
  2 14  1  0
 14 15  1  0
 15 16  1  0
 16 17  1  0
 17 18  1  0
 18 19  1  0
 19 20  1  0
 19 21  1  0
 21 22  1  0
 22 23  2  0
 22 24  1  0
 24 25  1  0
 25 26  1  0
 26 27  1  0
 27 28  2  0
 28 29  1  0
 29 30  2  0
 30 31  1  0
 31 32  2  0
 25 33  1  0
 33 34  2  0
 33 35  1  0
 35 36  1  0
 36 37  1  0
 37 38  1  0
 38 39  2  0
 39 40  1  0
 40 41  2  0
 41 42  1  0
 42 43  2  0
 36 44  1  0
 44 45  2  0
 44 46  1  0
 46 47  1  0
 47 48  1  0
 48 49  1  0
 49 50  2  0
 50 51  1  0
 51 52  2  0
 52 53  1  0
 53 54  2  0
 47 55  1  0
 55 56  2  0
 55 57  1  0
 13  5  1  0
 20 15  1  0
 32 27  1  0
 43 38  1  0
 54 49  1  0
 11  6  1  0
 21 17  1  0
M  END
>  <Title>  (5) 
idAAGSgen6

$$$$

     RDKit          2D

 58 63  0  0  0  0  0  0  0  0999 V2000
   -4.6888    1.5942    0.0000 O   0  0  0  0  0  0  0  0  0  0  0  0
   -3.4031    2.3668    0.0000 C   0  0  0  0  0  0  0  0  0  0  0  0
   -3.2463    3.8586    0.0000 N   0  0  0  0  0  0  0  0  0  0  0  0
   -4.4598    4.7402    0.0000 C   0  0  0  0  0  0  0  0  0  0  0  0
   -4.3030    6.2320    0.0000 C   0  0  0  0  0  0  0  0  0  0  0  0
   -5.5165    7.1137    0.0000 C   0  0  0  0  0  0  0  0  0  0  0  0
   -5.3597    8.6055    0.0000 C   0  0  0  0  0  0  0  0  0  0  0  0
   -6.5733    9.4872    0.0000 C   0  0  0  0  0  0  0  0  0  0  0  0
   -7.9436    8.8771    0.0000 C   0  0  0  0  0  0  0  0  0  0  0  0
   -8.1004    7.3853    0.0000 C   0  0  0  0  0  0  0  0  0  0  0  0
   -6.8869    6.5036    0.0000 C   0  0  0  0  0  0  0  0  0  0  0  0
   -5.8301    4.1301    0.0000 C   0  0  0  0  0  0  0  0  0  0  0  0
   -5.9869    2.6383    0.0000 O   0  0  0  0  0  0  0  0  0  0  0  0
   -7.0436    5.0118    0.0000 O   0  0  0  0  0  0  0  0  0  0  0  0
   -2.1895    1.4851    0.0000 C   0  0  0  0  0  0  0  0  0  0  0  0
   -0.8192    2.0952    0.0000 C   0  0  0  0  0  0  0  0  0  0  0  0
    0.3943    1.2135    0.0000 C   0  0  0  0  0  0  0  0  0  0  0  0
    1.2760    0.0000    0.0000 C   0  0  0  0  0  0  0  0  0  0  0  0
    0.3943   -1.2135    0.0000 C   0  0  0  0  0  0  0  0  0  0  0  0
   -1.0323   -0.7500    0.0000 C   0  0  0  0  0  0  0  0  0  0  0  0
   -2.3463   -0.0067    0.0000 C   0  0  0  0  0  0  0  0  0  0  0  0
   -1.0323    0.7500    0.0000 C   0  0  0  0  0  0  0  0  0  0  0  0
   -2.2458    1.6317    0.0000 C   0  0  0  0  0  0  0  0  0  0  0  0
   -3.6161    1.0216    0.0000 O   0  0  0  0  0  0  0  0  0  0  0  0
   -2.0890    3.1235    0.0000 N   0  0  0  0  0  0  0  0  0  0  0  0
   -3.3025    4.0051    0.0000 C   0  0  0  0  0  0  0  0  0  0  0  0
   -3.1458    5.4969    0.0000 C   0  0  0  0  0  0  0  0  0  0  0  0
   -4.3593    6.3786    0.0000 C   0  0  0  0  0  0  0  0  0  0  0  0
   -4.2025    7.8704    0.0000 C   0  0  0  0  0  0  0  0  0  0  0  0
   -5.4160    8.7521    0.0000 C   0  0  0  0  0  0  0  0  0  0  0  0
   -6.7863    8.1420    0.0000 C   0  0  0  0  0  0  0  0  0  0  0  0
   -6.9431    6.6502    0.0000 C   0  0  0  0  0  0  0  0  0  0  0  0
   -5.7296    5.7685    0.0000 C   0  0  0  0  0  0  0  0  0  0  0  0
   -4.6729    3.3950    0.0000 C   0  0  0  0  0  0  0  0  0  0  0  0
   -5.0103    1.9335    0.0000 O   0  0  0  0  0  0  0  0  0  0  0  0
   -5.8864    4.2767    0.0000 N   0  0  0  0  0  0  0  0  0  0  0  0
   -7.2567    3.6666    0.0000 C   0  0  0  0  0  0  0  0  0  0  0  0
   -8.4702    4.5483    0.0000 C   0  0  0  0  0  0  0  0  0  0  0  0
   -9.8406    3.9382    0.0000 C   0  0  0  0  0  0  0  0  0  0  0  0
  -11.0541    4.8199    0.0000 C   0  0  0  0  0  0  0  0  0  0  0  0
  -12.4244    4.2098    0.0000 C   0  0  0  0  0  0  0  0  0  0  0  0
  -12.5812    2.7180    0.0000 C   0  0  0  0  0  0  0  0  0  0  0  0
  -11.3677    1.8363    0.0000 C   0  0  0  0  0  0  0  0  0  0  0  0
   -9.9973    2.4464    0.0000 C   0  0  0  0  0  0  0  0  0  0  0  0
   -7.4135    2.1748    0.0000 C   0  0  0  0  0  0  0  0  0  0  0  0
   -6.2000    1.2931    0.0000 O   0  0  0  0  0  0  0  0  0  0  0  0
   -8.7838    1.5647    0.0000 N   0  0  0  0  0  0  0  0  0  0  0  0
   -8.9406    0.0729    0.0000 C   0  0  0  0  0  0  0  0  0  0  0  0
  -10.3109   -0.5372    0.0000 C   0  0  0  0  0  0  0  0  0  0  0  0
  -10.4677   -2.0290    0.0000 C   0  0  0  0  0  0  0  0  0  0  0  0
  -11.8380   -2.6391    0.0000 C   0  0  0  0  0  0  0  0  0  0  0  0
  -11.9948   -4.1308    0.0000 C   0  0  0  0  0  0  0  0  0  0  0  0
  -10.7813   -5.0125    0.0000 C   0  0  0  0  0  0  0  0  0  0  0  0
   -9.4110   -4.4024    0.0000 C   0  0  0  0  0  0  0  0  0  0  0  0
   -9.2542   -2.9106    0.0000 C   0  0  0  0  0  0  0  0  0  0  0  0
   -7.7271   -0.8087    0.0000 C   0  0  0  0  0  0  0  0  0  0  0  0
   -6.3568   -0.1986    0.0000 O   0  0  0  0  0  0  0  0  0  0  0  0
   -7.8839   -2.3005    0.0000 O   0  0  0  0  0  0  0  0  0  0  0  0
  1  2  2  0
  2  3  1  0
  3  4  1  0
  4  5  1  0
  5  6  1  0
  6  7  2  0
  7  8  1  0
  8  9  2  0
  9 10  1  0
 10 11  2  0
  4 12  1  0
 12 13  2  0
 12 14  1  0
  2 15  1  0
 15 16  1  0
 16 17  1  0
 17 18  1  0
 18 19  1  0
 19 20  1  0
 20 21  1  0
 20 22  1  0
 22 23  1  0
 23 24  2  0
 23 25  1  0
 25 26  1  0
 26 27  1  0
 27 28  1  0
 28 29  2  0
 29 30  1  0
 30 31  2  0
 31 32  1  0
 32 33  2  0
 26 34  1  0
 34 35  2  0
 34 36  1  0
 36 37  1  0
 37 38  1  0
 38 39  1  0
 39 40  2  0
 40 41  1  0
 41 42  2  0
 42 43  1  0
 43 44  2  0
 37 45  1  0
 45 46  2  0
 45 47  1  0
 47 48  1  0
 48 49  1  0
 49 50  1  0
 50 51  2  0
 51 52  1  0
 52 53  2  0
 53 54  1  0
 54 55  2  0
 48 56  1  0
 56 57  2  0
 56 58  1  0
 11  6  1  0
 21 15  1  0
 33 28  1  0
 44 39  1  0
 55 50  1  0
 22 17  1  0
M  END
>  <Title>  (6) 
idAAGTgen6

$$$$

     RDKit          2D

 32 37  0  0  0  0  0  0  0  0999 V2000
    1.3718   -4.7294    0.0000 O   0  0  0  0  0  0  0  0  0  0  0  0
    2.8711   -4.7743    0.0000 C   0  0  0  0  0  0  0  0  0  0  0  0
    3.5819   -6.0952    0.0000 N   0  0  0  0  0  0  0  0  0  0  0  0
    2.7934   -7.3712    0.0000 C   0  0  0  0  0  0  0  0  0  0  0  0
    3.5042   -8.6921    0.0000 C   0  0  0  0  0  0  0  0  0  0  0  0
    4.9284   -8.2215    0.0000 C   0  0  0  0  0  0  0  0  0  0  0  0
    6.0481   -9.2196    0.0000 C   0  0  0  0  0  0  0  0  0  0  0  0
    7.4724   -8.7490    0.0000 C   0  0  0  0  0  0  0  0  0  0  0  0
    7.7769   -7.2802    0.0000 C   0  0  0  0  0  0  0  0  0  0  0  0
    6.6572   -6.2821    0.0000 C   0  0  0  0  0  0  0  0  0  0  0  0
    5.2330   -6.7527    0.0000 C   0  0  0  0  0  0  0  0  0  0  0  0
    3.7203  -10.1764    0.0000 C   0  0  0  0  0  0  0  0  0  0  0  0
    2.3268   -9.6215    0.0000 C   0  0  0  0  0  0  0  0  0  0  0  0
    3.6596   -3.4983    0.0000 N   0  0  0  0  0  0  0  0  0  0  0  0
    2.9488   -2.1774    0.0000 C   0  0  0  0  0  0  0  0  0  0  0  0
    3.5996   -0.8259    0.0000 C   0  0  0  0  0  0  0  0  0  0  0  0
    2.6351    0.4592    0.0000 C   0  0  0  0  0  0  0  0  0  0  0  0
    2.6351   -1.0408    0.0000 C   0  0  0  0  0  0  0  0  0  0  0  0
    1.4624   -1.9760    0.0000 C   0  0  0  0  0  0  0  0  0  0  0  0
   -0.0000   -1.0607    0.0000 C   0  0  0  0  0  0  0  0  0  0  0  0
    1.0607    0.0000    0.0000 C   0  0  0  0  0  0  0  0  0  0  0  0
    0.0000    1.0607    0.0000 C   0  0  0  0  0  0  0  0  0  0  0  0
   -1.0607    0.0000    0.0000 C   0  0  0  0  0  0  0  0  0  0  0  0
    1.4624    1.3944    0.0000 N   0  0  0  0  0  0  0  0  0  0  0  0
    1.7962    2.8568    0.0000 C   0  0  0  0  0  0  0  0  0  0  0  0
    3.2295    3.2990    0.0000 C   0  0  0  0  0  0  0  0  0  0  0  0
    3.5633    4.7614    0.0000 C   0  0  0  0  0  0  0  0  0  0  0  0
    4.9967    5.2035    0.0000 C   0  0  0  0  0  0  0  0  0  0  0  0
    5.3305    6.6659    0.0000 C   0  0  0  0  0  0  0  0  0  0  0  0
    4.2309    7.6861    0.0000 C   0  0  0  0  0  0  0  0  0  0  0  0
    2.7975    7.2440    0.0000 C   0  0  0  0  0  0  0  0  0  0  0  0
    2.4637    5.7816    0.0000 C   0  0  0  0  0  0  0  0  0  0  0  0
  1  2  2  0
  2  3  1  0
  3  4  1  0
  4  5  1  0
  5  6  1  0
  6  7  2  0
  7  8  1  0
  8  9  2  0
  9 10  1  0
 10 11  2  0
  5 12  1  0
 12 13  1  0
  2 14  1  0
 14 15  1  0
 15 16  1  0
 16 17  1  0
 17 18  1  0
 18 19  1  0
 19 20  1  0
 20 21  1  0
 21 22  1  0
 22 23  1  0
 22 24  1  0
 24 25  1  0
 25 26  1  0
 26 27  1  0
 27 28  2  0
 28 29  1  0
 29 30  2  0
 30 31  1  0
 31 32  2  0
 13  5  1  0
 19 15  1  0
 23 20  1  0
 32 27  1  0
 11  6  1  0
 24 17  1  0
M  END
>  <Title>  (7) 
idAAGUgen6

$$$$

     RDKit          2D

  8  8  0  0  0  0  0  0  0  0999 V2000
    3.7500   -1.2990    0.0000 C   0  0  0  0  0  0  0  0  0  0  0  0
    3.0000    0.0000    0.0000 O   0  0  0  0  0  0  0  0  0  0  0  0
    1.5000    0.0000    0.0000 C   0  0  0  0  0  0  0  0  0  0  0  0
    0.7500   -1.2990    0.0000 C   0  0  0  0  0  0  0  0  0  0  0  0
   -0.7500   -1.2990    0.0000 C   0  0  0  0  0  0  0  0  0  0  0  0
   -1.5000    0.0000    0.0000 C   0  0  0  0  0  0  0  0  0  0  0  0
   -0.7500    1.2990    0.0000 C   0  0  0  0  0  0  0  0  0  0  0  0
    0.7500    1.2990    0.0000 C   0  0  0  0  0  0  0  0  0  0  0  0
  1  2  1  0
  2  3  1  0
  3  4  2  0
  4  5  1  0
  5  6  2  0
  6  7  1  0
  7  8  2  0
  8  3  1  0
M  END
>  <Title>  (8) 
idAAGVgen6

$$$$

     RDKit          2D

 73 82  0  0  0  0  0  0  0  0999 V2000
   -4.6528   -2.6992    0.0000 O   0  0  0  0  0  0  0  0  0  0  0  0
   -3.7500   -3.8971    0.0000 C   0  0  0  0  0  0  0  0  0  0  0  0
   -2.2500   -3.8971    0.0000 N   0  0  0  0  0  0  0  0  0  0  0  0
   -1.5000   -2.5981    0.0000 C   0  0  0  0  0  0  0  0  0  0  0  0
   -0.0000   -2.5981    0.0000 C   0  0  0  0  0  0  0  0  0  0  0  0
    0.7500   -1.2990    0.0000 C   0  0  0  0  0  0  0  0  0  0  0  0
    1.5000    0.0000    0.0000 C   0  0  0  0  0  0  0  0  0  0  0  0
    0.7500    1.2990    0.0000 C   0  0  0  0  0  0  0  0  0  0  0  0
   -0.7500    1.2990    0.0000 C   0  0  0  0  0  0  0  0  0  0  0  0
   -1.5000    0.0000    0.0000 C   0  0  0  0  0  0  0  0  0  0  0  0
   -2.2500   -1.2990    0.0000 C   0  0  0  0  0  0  0  0  0  0  0  0
   -0.7500   -1.2990    0.0000 N   0  0  0  0  0  0  0  0  0  0  0  0
   -1.5000   -2.5981    0.0000 C   0  0  0  0  0  0  0  0  0  0  0  0
   -3.0000   -2.5981    0.0000 C   0  0  0  0  0  0  0  0  0  0  0  0
   -3.7500   -3.8971    0.0000 C   0  0  0  0  0  0  0  0  0  0  0  0
   -5.2500   -3.8971    0.0000 C   0  0  0  0  0  0  0  0  0  0  0  0
   -6.0000   -5.1962    0.0000 C   0  0  0  0  0  0  0  0  0  0  0  0
   -5.2500   -6.4952    0.0000 C   0  0  0  0  0  0  0  0  0  0  0  0
   -3.7500   -6.4952    0.0000 C   0  0  0  0  0  0  0  0  0  0  0  0
   -3.0000   -5.1962    0.0000 C   0  0  0  0  0  0  0  0  0  0  0  0
   -4.5000   -5.1962    0.0000 C   0  0  0  0  0  0  0  0  0  0  0  0
   -6.0000   -5.1962    0.0000 C   0  0  0  0  0  0  0  0  0  0  0  0
   -6.7500   -6.4952    0.0000 C   0  0  0  0  0  0  0  0  0  0  0  0
   -6.0000   -7.7942    0.0000 C   0  0  0  0  0  0  0  0  0  0  0  0
   -4.5000   -7.7942    0.0000 C   0  0  0  0  0  0  0  0  0  0  0  0
   -3.7500   -6.4952    0.0000 C   0  0  0  0  0  0  0  0  0  0  0  0
   -5.2500   -6.4952    0.0000 C   0  0  0  0  0  0  0  0  0  0  0  0
   -4.5000   -5.1962    0.0000 C   0  0  0  0  0  0  0  0  0  0  0  0
   -5.5420   -4.1172    0.0000 O   0  0  0  0  0  0  0  0  0  0  0  0
   -3.0000   -5.1962    0.0000 N   0  0  0  0  0  0  0  0  0  0  0  0
   -2.2500   -3.8971    0.0000 C   0  0  0  0  0  0  0  0  0  0  0  0
   -0.7500   -3.8971    0.0000 C   0  0  0  0  0  0  0  0  0  0  0  0
    0.0000   -2.5981    0.0000 C   0  0  0  0  0  0  0  0  0  0  0  0
    1.5000   -2.5981    0.0000 C   0  0  0  0  0  0  0  0  0  0  0  0
    2.2500   -1.2990    0.0000 C   0  0  0  0  0  0  0  0  0  0  0  0
    1.5000   -0.0000    0.0000 C   0  0  0  0  0  0  0  0  0  0  0  0
    0.0000   -0.0000    0.0000 C   0  0  0  0  0  0  0  0  0  0  0  0
   -0.7500   -1.2990    0.0000 C   0  0  0  0  0  0  0  0  0  0  0  0
   -3.0000   -2.5981    0.0000 C   0  0  0  0  0  0  0  0  0  0  0  0
   -4.4888   -2.4152    0.0000 O   0  0  0  0  0  0  0  0  0  0  0  0
   -2.2500   -1.2990    0.0000 N   0  0  0  0  0  0  0  0  0  0  0  0
   -3.0000   -0.0000    0.0000 C   0  0  0  0  0  0  0  0  0  0  0  0
   -2.2500    1.2990    0.0000 C   0  0  0  0  0  0  0  0  0  0  0  0
   -3.0000    2.5981    0.0000 C   0  0  0  0  0  0  0  0  0  0  0  0
   -2.2500    3.8971    0.0000 C   0  0  0  0  0  0  0  0  0  0  0  0
   -3.0000    5.1962    0.0000 C   0  0  0  0  0  0  0  0  0  0  0  0
   -4.5000    5.1962    0.0000 C   0  0  0  0  0  0  0  0  0  0  0  0
   -5.2500    3.8971    0.0000 C   0  0  0  0  0  0  0  0  0  0  0  0
   -4.5000    2.5981    0.0000 C   0  0  0  0  0  0  0  0  0  0  0  0
   -4.5000   -0.0000    0.0000 C   0  0  0  0  0  0  0  0  0  0  0  0
   -5.2500   -1.2990    0.0000 O   0  0  0  0  0  0  0  0  0  0  0  0
   -5.2500    1.2990    0.0000 N   0  0  0  0  0  0  0  0  0  0  0  0
   -6.7500    1.2990    0.0000 C   0  0  0  0  0  0  0  0  0  0  0  0
   -7.5000    2.5981    0.0000 C   0  0  0  0  0  0  0  0  0  0  0  0
   -9.0000    2.5981    0.0000 C   0  0  0  0  0  0  0  0  0  0  0  0
   -9.7500    1.2990    0.0000 C   0  0  0  0  0  0  0  0  0  0  0  0
   -9.0000    0.0000    0.0000 C   0  0  0  0  0  0  0  0  0  0  0  0
   -7.5000    0.0000    0.0000 C   0  0  0  0  0  0  0  0  0  0  0  0
   -8.2500    1.2990    0.0000 C   0  0  0  0  0  0  0  0  0  0  0  0
   -6.7500    1.2990    0.0000 C   0  0  0  0  0  0  0  0  0  0  0  0
   -6.0000    2.5981    0.0000 O   0  0  0  0  0  0  0  0  0  0  0  0
   -6.0000   -0.0000    0.0000 N   0  0  0  0  0  0  0  0  0  0  0  0
   -4.5000   -0.0000    0.0000 C   0  0  0  0  0  0  0  0  0  0  0  0
   -3.7500   -1.2990    0.0000 C   0  0  0  0  0  0  0  0  0  0  0  0
   -2.2500   -1.2990    0.0000 C   0  0  0  0  0  0  0  0  0  0  0  0
   -1.5000   -2.5981    0.0000 C   0  0  0  0  0  0  0  0  0  0  0  0
    0.0000   -2.5981    0.0000 C   0  0  0  0  0  0  0  0  0  0  0  0
    0.7500   -1.2990    0.0000 C   0  0  0  0  0  0  0  0  0  0  0  0
    0.0000   -0.0000    0.0000 C   0  0  0  0  0  0  0  0  0  0  0  0
   -1.5000   -0.0000    0.0000 C   0  0  0  0  0  0  0  0  0  0  0  0
   -3.7500    1.2990    0.0000 C   0  0  0  0  0  0  0  0  0  0  0  0
   -4.7920    2.3780    0.0000 O   0  0  0  0  0  0  0  0  0  0  0  0
   -2.2946    1.6620    0.0000 O   0  0  0  0  0  0  0  0  0  0  0  0
  1  2  2  0
  2  3  1  0
  3  4  1  0
  4  5  1  0
  5  6  1  0
  6  7  1  0
  7  8  1  0
  8  9  1  0
  9 10  1  0
 10 11  1  0
 10 12  1  0
 12 13  1  0
 13 14  1  0
 14 15  1  0
 15 16  2  0
 16 17  1  0
 17 18  2  0
 18 19  1  0
 19 20  2  0
  2 21  1  0
 21 22  1  0
 22 23  1  0
 23 24  1  0
 24 25  1  0
 25 26  1  0
 25 27  1  0
 27 28  1  0
 28 29  2  0
 28 30  1  0
 30 31  1  0
 31 32  1  0
 32 33  1  0
 33 34  2  0
 34 35  1  0
 35 36  2  0
 36 37  1  0
 37 38  2  0
 31 39  1  0
 39 40  2  0
 39 41  1  0
 41 42  1  0
 42 43  1  0
 43 44  1  0
 44 45  2  0
 45 46  1  0
 46 47  2  0
 47 48  1  0
 48 49  2  0
 42 50  1  0
 50 51  2  0
 50 52  1  0
 52 53  1  0
 53 54  1  0
 54 55  1  0
 55 56  1  0
 56 57  1  0
 57 58  1  0
 57 59  1  0
 59 60  1  0
 60 61  2  0
 60 62  1  0
 62 63  1  0
 63 64  1  0
 64 65  1  0
 65 66  2  0
 66 67  1  0
 67 68  2  0
 68 69  1  0
 69 70  2  0
 63 71  1  0
 71 72  2  0
 71 73  1  0
 11  4  1  0
 20 15  1  0
 26 21  1  0
 38 33  1  0
 49 44  1  0
 58 53  1  0
 70 65  1  0
 12  6  1  0
 27 23  1  0
 59 55  1  0
M  END
>  <Title>  (9) 
idAAGWgen6

$$$$

     RDKit          2D

 47 51  0  0  0  0  0  0  0  0999 V2000
   -4.6888    1.5942    0.0000 O   0  0  0  0  0  0  0  0  0  0  0  0
   -3.4031    2.3668    0.0000 C   0  0  0  0  0  0  0  0  0  0  0  0
   -3.2463    3.8586    0.0000 N   0  0  0  0  0  0  0  0  0  0  0  0
   -4.4598    4.7402    0.0000 C   0  0  0  0  0  0  0  0  0  0  0  0
   -4.3030    6.2320    0.0000 C   0  0  0  0  0  0  0  0  0  0  0  0
   -5.5165    7.1137    0.0000 C   0  0  0  0  0  0  0  0  0  0  0  0
   -5.3597    8.6055    0.0000 C   0  0  0  0  0  0  0  0  0  0  0  0
   -6.5733    9.4872    0.0000 C   0  0  0  0  0  0  0  0  0  0  0  0
   -7.9436    8.8771    0.0000 C   0  0  0  0  0  0  0  0  0  0  0  0
   -8.1004    7.3853    0.0000 C   0  0  0  0  0  0  0  0  0  0  0  0
   -6.8869    6.5036    0.0000 C   0  0  0  0  0  0  0  0  0  0  0  0
   -5.8301    4.1301    0.0000 C   0  0  0  0  0  0  0  0  0  0  0  0
   -5.9869    2.6383    0.0000 O   0  0  0  0  0  0  0  0  0  0  0  0
   -7.0436    5.0118    0.0000 O   0  0  0  0  0  0  0  0  0  0  0  0
   -2.1895    1.4851    0.0000 C   0  0  0  0  0  0  0  0  0  0  0  0
   -0.8192    2.0952    0.0000 C   0  0  0  0  0  0  0  0  0  0  0  0
    0.3943    1.2135    0.0000 C   0  0  0  0  0  0  0  0  0  0  0  0
    1.2760    0.0000    0.0000 C   0  0  0  0  0  0  0  0  0  0  0  0
    0.3943   -1.2135    0.0000 C   0  0  0  0  0  0  0  0  0  0  0  0
   -1.0323   -0.7500    0.0000 C   0  0  0  0  0  0  0  0  0  0  0  0
   -2.3463   -0.0067    0.0000 C   0  0  0  0  0  0  0  0  0  0  0  0
   -1.0323    0.7500    0.0000 C   0  0  0  0  0  0  0  0  0  0  0  0
   -2.2458    1.6317    0.0000 C   0  0  0  0  0  0  0  0  0  0  0  0
   -3.6161    1.0216    0.0000 O   0  0  0  0  0  0  0  0  0  0  0  0
   -2.0890    3.1235    0.0000 N   0  0  0  0  0  0  0  0  0  0  0  0
   -3.3025    4.0051    0.0000 C   0  0  0  0  0  0  0  0  0  0  0  0
   -3.1458    5.4969    0.0000 C   0  0  0  0  0  0  0  0  0  0  0  0
   -4.3593    6.3786    0.0000 C   0  0  0  0  0  0  0  0  0  0  0  0
   -4.2025    7.8704    0.0000 C   0  0  0  0  0  0  0  0  0  0  0  0
   -5.4160    8.7521    0.0000 C   0  0  0  0  0  0  0  0  0  0  0  0
   -6.7863    8.1420    0.0000 C   0  0  0  0  0  0  0  0  0  0  0  0
   -6.9431    6.6502    0.0000 C   0  0  0  0  0  0  0  0  0  0  0  0
   -5.7296    5.7685    0.0000 C   0  0  0  0  0  0  0  0  0  0  0  0
   -4.6729    3.3950    0.0000 C   0  0  0  0  0  0  0  0  0  0  0  0
   -5.0103    1.9335    0.0000 O   0  0  0  0  0  0  0  0  0  0  0  0
   -5.8864    4.2767    0.0000 N   0  0  0  0  0  0  0  0  0  0  0  0
   -7.2567    3.6666    0.0000 C   0  0  0  0  0  0  0  0  0  0  0  0
   -8.4702    4.5483    0.0000 C   0  0  0  0  0  0  0  0  0  0  0  0
   -9.8406    3.9382    0.0000 C   0  0  0  0  0  0  0  0  0  0  0  0
  -11.0541    4.8199    0.0000 C   0  0  0  0  0  0  0  0  0  0  0  0
  -12.4244    4.2098    0.0000 C   0  0  0  0  0  0  0  0  0  0  0  0
  -12.5812    2.7180    0.0000 C   0  0  0  0  0  0  0  0  0  0  0  0
  -11.3677    1.8363    0.0000 C   0  0  0  0  0  0  0  0  0  0  0  0
   -9.9973    2.4464    0.0000 C   0  0  0  0  0  0  0  0  0  0  0  0
   -7.4135    2.1748    0.0000 C   0  0  0  0  0  0  0  0  0  0  0  0
   -6.2000    1.2931    0.0000 O   0  0  0  0  0  0  0  0  0  0  0  0
   -8.7838    1.5647    0.0000 O   0  0  0  0  0  0  0  0  0  0  0  0
  1  2  2  0
  2  3  1  0
  3  4  1  0
  4  5  1  0
  5  6  1  0
  6  7  2  0
  7  8  1  0
  8  9  2  0
  9 10  1  0
 10 11  2  0
  4 12  1  0
 12 13  2  0
 12 14  1  0
  2 15  1  0
 15 16  1  0
 16 17  1  0
 17 18  1  0
 18 19  1  0
 19 20  1  0
 20 21  1  0
 20 22  1  0
 22 23  1  0
 23 24  2  0
 23 25  1  0
 25 26  1  0
 26 27  1  0
 27 28  1  0
 28 29  2  0
 29 30  1  0
 30 31  2  0
 31 32  1  0
 32 33  2  0
 26 34  1  0
 34 35  2  0
 34 36  1  0
 36 37  1  0
 37 38  1  0
 38 39  1  0
 39 40  2  0
 40 41  1  0
 41 42  2  0
 42 43  1  0
 43 44  2  0
 37 45  1  0
 45 46  2  0
 45 47  1  0
 11  6  1  0
 21 15  1  0
 33 28  1  0
 44 39  1  0
 22 17  1  0
M  END
>  <Title>  (10) 
idAAGXgen6

$$$$

     RDKit          2D

 49 55  0  0  0  0  0  0  0  0999 V2000
   -6.4157    1.7466    0.0000 C   0  0  0  0  0  0  0  0  0  0  0  0
   -5.4805    0.5738    0.0000 C   0  0  0  0  0  0  0  0  0  0  0  0
   -4.5453   -0.5989    0.0000 C   0  0  0  0  0  0  0  0  0  0  0  0
   -6.6532   -0.3614    0.0000 C   0  0  0  0  0  0  0  0  0  0  0  0
   -4.3077    1.5090    0.0000 C   0  0  0  0  0  0  0  0  0  0  0  0
   -4.8348    2.9134    0.0000 C   0  0  0  0  0  0  0  0  0  0  0  0
   -4.4357    4.3593    0.0000 C   0  0  0  0  0  0  0  0  0  0  0  0
   -3.2630    5.2946    0.0000 C   0  0  0  0  0  0  0  0  0  0  0  0
   -3.7901    6.6989    0.0000 C   0  0  0  0  0  0  0  0  0  0  0  0
   -5.2840    6.8334    0.0000 C   0  0  0  0  0  0  0  0  0  0  0  0
   -6.1104    8.0853    0.0000 C   0  0  0  0  0  0  0  0  0  0  0  0
   -5.6468    9.5118    0.0000 C   0  0  0  0  0  0  0  0  0  0  0  0
   -4.2425   10.0389    0.0000 C   0  0  0  0  0  0  0  0  0  0  0  0
   -2.9548    9.2695    0.0000 C   0  0  0  0  0  0  0  0  0  0  0  0
   -2.7535    7.7831    0.0000 C   0  0  0  0  0  0  0  0  0  0  0  0
   -1.3491    8.3102    0.0000 C   0  0  0  0  0  0  0  0  0  0  0  0
   -1.9271    6.5313    0.0000 C   0  0  0  0  0  0  0  0  0  0  0  0
   -1.7645    5.3619    0.0000 C   0  0  0  0  0  0  0  0  0  0  0  0
   -0.5127    4.5355    0.0000 C   0  0  0  0  0  0  0  0  0  0  0  0
    0.0144    3.1312    0.0000 C   0  0  0  0  0  0  0  0  0  0  0  0
   -0.3846    1.6852    0.0000 C   0  0  0  0  0  0  0  0  0  0  0  0
    0.9030    2.4546    0.0000 C   0  0  0  0  0  0  0  0  0  0  0  0
    1.0777    1.3515    0.0000 C   0  0  0  0  0  0  0  0  0  0  0  0
    2.0130    2.5242    0.0000 C   0  0  0  0  0  0  0  0  0  0  0  0
    3.4962    2.3006    0.0000 C   0  0  0  0  0  0  0  0  0  0  0  0
    4.4315    3.4734    0.0000 C   0  0  0  0  0  0  0  0  0  0  0  0
    4.0324    4.9193    0.0000 C   0  0  0  0  0  0  0  0  0  0  0  0
    5.2843    5.7457    0.0000 C   0  0  0  0  0  0  0  0  0  0  0  0
    6.4570    4.8104    0.0000 C   0  0  0  0  0  0  0  0  0  0  0  0
    5.9300    3.4061    0.0000 C   0  0  0  0  0  0  0  0  0  0  0  0
    1.7286    0.0000    0.0000 C   0  0  0  0  0  0  0  0  0  0  0  0
    1.0777   -1.3515    0.0000 C   0  0  0  0  0  0  0  0  0  0  0  0
   -0.3846   -1.6852    0.0000 C   0  0  0  0  0  0  0  0  0  0  0  0
   -1.5574   -0.7500    0.0000 C   0  0  0  0  0  0  0  0  0  0  0  0
   -1.5574    0.7500    0.0000 C   0  0  0  0  0  0  0  0  0  0  0  0
   -2.5940   -0.3342    0.0000 C   0  0  0  0  0  0  0  0  0  0  0  0
   -3.0559    0.6827    0.0000 C   0  0  0  0  0  0  0  0  0  0  0  0
   -3.4549   -0.7632    0.0000 C   0  0  0  0  0  0  0  0  0  0  0  0
   -2.4022   -1.8318    0.0000 C   0  0  0  0  0  0  0  0  0  0  0  0
   -2.8013   -3.2777    0.0000 C   0  0  0  0  0  0  0  0  0  0  0  0
   -1.7486   -4.3463    0.0000 C   0  0  0  0  0  0  0  0  0  0  0  0
   -2.1477   -5.7923    0.0000 C   0  0  0  0  0  0  0  0  0  0  0  0
   -3.5994   -6.1696    0.0000 C   0  0  0  0  0  0  0  0  0  0  0  0
   -4.6521   -5.1011    0.0000 C   0  0  0  0  0  0  0  0  0  0  0  0
   -1.7428   -3.5699    0.0000 C   0  0  0  0  0  0  0  0  0  0  0  0
   -0.2968   -3.9689    0.0000 C   0  0  0  0  0  0  0  0  0  0  0  0
   -0.6959   -5.4149    0.0000 C   0  0  0  0  0  0  0  0  0  0  0  0
   -1.3495   -2.9004    0.0000 C   0  0  0  0  0  0  0  0  0  0  0  0
   -4.2530   -3.6551    0.0000 C   0  0  0  0  0  0  0  0  0  0  0  0
  1  2  1  0
  2  3  1  0
  2  4  1  0
  2  5  1  0
  5  6  1  0
  6  7  1  0
  7  8  1  0
  8  9  1  0
  9 10  1  0
 10 11  1  0
 11 12  1  0
 12 13  1  0
 13 14  1  0
 14 15  1  0
 15 16  1  0
 15 17  1  0
  8 18  1  0
 18 19  1  0
 19 20  1  0
 20 21  1  0
 21 22  1  0
 21 23  1  0
 23 24  1  0
 24 25  1  0
 25 26  1  0
 26 27  1  0
 27 28  1  0
 28 29  1  0
 29 30  1  0
 23 31  1  0
 31 32  1  0
 32 33  1  0
 33 34  1  0
 34 35  1  0
 35 36  1  0
 35 37  1  0
 37 38  1  0
 38 39  1  0
 39 40  1  0
 40 41  1  0
 41 42  1  0
 42 43  1  0
 43 44  1  0
 44 45  1  0
 45 46  1  0
 46 47  1  0
 46 48  1  0
 44 49  1  0
 37  5  1  0
 48 40  1  0
 15  9  1  0
 35 21  1  0
 49 40  1  0
 30 26  1  0
 47 42  1  0
M  END
>  <Title>  (11) 
idAAGYgen6

$$$$

     RDKit          2D

 63 69  0  0  0  0  0  0  0  0999 V2000
   -1.0227   -5.1915    0.0000 C   0  0  0  0  0  0  0  0  0  0  0  0
   -0.0024   -6.2911    0.0000 C   0  0  0  0  0  0  0  0  0  0  0  0
    1.0178   -7.3906    0.0000 C   0  0  0  0  0  0  0  0  0  0  0  0
   -1.1020   -7.3113    0.0000 C   0  0  0  0  0  0  0  0  0  0  0  0
    1.0972   -5.2708    0.0000 C   0  0  0  0  0  0  0  0  0  0  0  0
    2.4935   -5.8188    0.0000 C   0  0  0  0  0  0  0  0  0  0  0  0
    3.7925   -5.0688    0.0000 C   0  0  0  0  0  0  0  0  0  0  0  0
    4.0161   -3.5856    0.0000 C   0  0  0  0  0  0  0  0  0  0  0  0
    5.4494   -3.1434    0.0000 C   0  0  0  0  0  0  0  0  0  0  0  0
    5.6730   -1.6602    0.0000 C   0  0  0  0  0  0  0  0  0  0  0  0
    6.9720   -0.9102    0.0000 C   0  0  0  0  0  0  0  0  0  0  0  0
    8.3683   -1.4582    0.0000 C   0  0  0  0  0  0  0  0  0  0  0  0
    8.8105   -2.8916    0.0000 C   0  0  0  0  0  0  0  0  0  0  0  0
    7.9655   -4.1309    0.0000 C   0  0  0  0  0  0  0  0  0  0  0  0
    6.4697   -4.2430    0.0000 C   0  0  0  0  0  0  0  0  0  0  0  0
    6.9118   -5.6764    0.0000 C   0  0  0  0  0  0  0  0  0  0  0  0
    5.1706   -4.9930    0.0000 C   0  0  0  0  0  0  0  0  0  0  0  0
    2.9958   -2.4860    0.0000 C   0  0  0  0  0  0  0  0  0  0  0  0
    1.5000   -2.5981    0.0000 C   0  0  0  0  0  0  0  0  0  0  0  0
    0.7500   -1.2990    0.0000 C   0  0  0  0  0  0  0  0  0  0  0  0
    1.5000    0.0000    0.0000 C   0  0  0  0  0  0  0  0  0  0  0  0
    0.7500    1.2990    0.0000 C   0  0  0  0  0  0  0  0  0  0  0  0
   -0.7500    1.2990    0.0000 C   0  0  0  0  0  0  0  0  0  0  0  0
   -1.5000    0.0000    0.0000 C   0  0  0  0  0  0  0  0  0  0  0  0
   -0.7500   -1.2990    0.0000 C   0  0  0  0  0  0  0  0  0  0  0  0
   -0.0000   -0.0000    0.0000 C   0  0  0  0  0  0  0  0  0  0  0  0
    0.7500   -1.2990    0.0000 C   0  0  0  0  0  0  0  0  0  0  0  0
    2.2500   -1.2990    0.0000 O   0  0  0  0  0  0  0  0  0  0  0  0
   -0.0000   -2.5981    0.0000 N   0  0  0  0  0  0  0  0  0  0  0  0
    0.7500   -3.8971    0.0000 C   0  0  0  0  0  0  0  0  0  0  0  0
   -0.0000   -5.1962    0.0000 C   0  0  0  0  0  0  0  0  0  0  0  0
    0.7500   -6.4952    0.0000 C   0  0  0  0  0  0  0  0  0  0  0  0
   -0.0000   -7.7942    0.0000 C   0  0  0  0  0  0  0  0  0  0  0  0
    0.7500   -9.0933    0.0000 C   0  0  0  0  0  0  0  0  0  0  0  0
    2.2500   -9.0933    0.0000 C   0  0  0  0  0  0  0  0  0  0  0  0
    3.0000   -7.7942    0.0000 C   0  0  0  0  0  0  0  0  0  0  0  0
    2.2500   -6.4952    0.0000 C   0  0  0  0  0  0  0  0  0  0  0  0
    2.2500   -3.8971    0.0000 C   0  0  0  0  0  0  0  0  0  0  0  0
    3.2920   -2.8182    0.0000 O   0  0  0  0  0  0  0  0  0  0  0  0
    3.0000   -5.1962    0.0000 N   0  0  0  0  0  0  0  0  0  0  0  0
    4.5000   -5.1962    0.0000 C   0  0  0  0  0  0  0  0  0  0  0  0
    5.2500   -6.4952    0.0000 C   0  0  0  0  0  0  0  0  0  0  0  0
    6.7500   -6.4952    0.0000 C   0  0  0  0  0  0  0  0  0  0  0  0
    7.5000   -7.7942    0.0000 C   0  0  0  0  0  0  0  0  0  0  0  0
    9.0000   -7.7942    0.0000 C   0  0  0  0  0  0  0  0  0  0  0  0
    9.7500   -6.4952    0.0000 C   0  0  0  0  0  0  0  0  0  0  0  0
    9.0000   -5.1962    0.0000 C   0  0  0  0  0  0  0  0  0  0  0  0
    7.5000   -5.1962    0.0000 C   0  0  0  0  0  0  0  0  0  0  0  0
    5.2500   -3.8971    0.0000 C   0  0  0  0  0  0  0  0  0  0  0  0
    4.5000   -2.5981    0.0000 O   0  0  0  0  0  0  0  0  0  0  0  0
    6.7500   -3.8971    0.0000 N   0  0  0  0  0  0  0  0  0  0  0  0
    7.5000   -2.5981    0.0000 C   0  0  0  0  0  0  0  0  0  0  0  0
    9.0000   -2.5981    0.0000 C   0  0  0  0  0  0  0  0  0  0  0  0
    9.7500   -1.2990    0.0000 C   0  0  0  0  0  0  0  0  0  0  0  0
   11.2500   -1.2990    0.0000 C   0  0  0  0  0  0  0  0  0  0  0  0
   12.0000   -0.0000    0.0000 C   0  0  0  0  0  0  0  0  0  0  0  0
   11.2500    1.2990    0.0000 C   0  0  0  0  0  0  0  0  0  0  0  0
    9.7500    1.2990    0.0000 C   0  0  0  0  0  0  0  0  0  0  0  0
    9.0000   -0.0000    0.0000 C   0  0  0  0  0  0  0  0  0  0  0  0
    6.7500   -1.2990    0.0000 C   0  0  0  0  0  0  0  0  0  0  0  0
    5.2946   -0.9361    0.0000 O   0  0  0  0  0  0  0  0  0  0  0  0
    7.5000   -0.0000    0.0000 O   0  0  0  0  0  0  0  0  0  0  0  0
    0.6550   -3.8374    0.0000 C   0  0  0  0  0  0  0  0  0  0  0  0
  1  2  1  0
  2  3  1  0
  2  4  1  0
  2  5  1  0
  5  6  1  0
  6  7  1  0
  7  8  1  0
  8  9  1  0
  9 10  1  0
 10 11  1  0
 11 12  1  0
 12 13  1  0
 13 14  1  0
 14 15  1  0
 15 16  1  0
 15 17  1  0
  8 18  1  0
 18 19  1  0
 19 20  1  0
 20 21  1  0
 21 22  1  0
 22 23  1  0
 23 24  1  0
 24 25  1  0
 24 26  1  0
 26 27  1  0
 27 28  2  0
 27 29  1  0
 29 30  1  0
 30 31  1  0
 31 32  1  0
 32 33  2  0
 33 34  1  0
 34 35  2  0
 35 36  1  0
 36 37  2  0
 30 38  1  0
 38 39  2  0
 38 40  1  0
 40 41  1  0
 41 42  1  0
 42 43  1  0
 43 44  2  0
 44 45  1  0
 45 46  2  0
 46 47  1  0
 47 48  2  0
 41 49  1  0
 49 50  2  0
 49 51  1  0
 51 52  1  0
 52 53  1  0
 53 54  1  0
 54 55  2  0
 55 56  1  0
 56 57  2  0
 57 58  1  0
 58 59  2  0
 52 60  1  0
 60 61  2  0
 60 62  1  0
 19 63  1  0
 63  5  1  0
 15  9  1  0
 25 20  1  0
 37 32  1  0
 48 43  1  0
 59 54  1  0
 26 22  1  0
M  END
>  <Title>  (12) 
idAAGZgen6

$$$$

     RDKit          2D

 69 76  0  0  0  0  0  0  0  0999 V2000
    3.0000   -2.5981    0.0000 O   0  0  0  0  0  0  0  0  0  0  0  0
    1.5000   -2.5981    0.0000 C   0  0  0  0  0  0  0  0  0  0  0  0
    0.7500   -3.8971    0.0000 N   0  0  0  0  0  0  0  0  0  0  0  0
    1.5000   -5.1962    0.0000 C   0  0  0  0  0  0  0  0  0  0  0  0
    0.7500   -6.4952    0.0000 C   0  0  0  0  0  0  0  0  0  0  0  0
    1.5000   -7.7942    0.0000 C   0  0  0  0  0  0  0  0  0  0  0  0
    0.7500   -9.0933    0.0000 C   0  0  0  0  0  0  0  0  0  0  0  0
    1.5000  -10.3923    0.0000 C   0  0  0  0  0  0  0  0  0  0  0  0
    3.0000  -10.3923    0.0000 C   0  0  0  0  0  0  0  0  0  0  0  0
    3.7500   -9.0933    0.0000 C   0  0  0  0  0  0  0  0  0  0  0  0
    3.0000   -7.7942    0.0000 C   0  0  0  0  0  0  0  0  0  0  0  0
    3.0000   -5.1962    0.0000 C   0  0  0  0  0  0  0  0  0  0  0  0
    4.0420   -4.1172    0.0000 O   0  0  0  0  0  0  0  0  0  0  0  0
    3.7500   -6.4952    0.0000 N   0  0  0  0  0  0  0  0  0  0  0  0
    5.2500   -6.4952    0.0000 C   0  0  0  0  0  0  0  0  0  0  0  0
    6.0000   -7.7942    0.0000 C   0  0  0  0  0  0  0  0  0  0  0  0
    7.5000   -7.7942    0.0000 C   0  0  0  0  0  0  0  0  0  0  0  0
    8.2500   -9.0933    0.0000 C   0  0  0  0  0  0  0  0  0  0  0  0
    9.7500   -9.0933    0.0000 C   0  0  0  0  0  0  0  0  0  0  0  0
   10.5000   -7.7942    0.0000 C   0  0  0  0  0  0  0  0  0  0  0  0
    9.7500   -6.4952    0.0000 C   0  0  0  0  0  0  0  0  0  0  0  0
    8.2500   -6.4952    0.0000 C   0  0  0  0  0  0  0  0  0  0  0  0
    6.0000   -5.1962    0.0000 C   0  0  0  0  0  0  0  0  0  0  0  0
    5.2500   -3.8971    0.0000 O   0  0  0  0  0  0  0  0  0  0  0  0
    7.5000   -5.1962    0.0000 O   0  0  0  0  0  0  0  0  0  0  0  0
    0.7500   -1.2990    0.0000 C   0  0  0  0  0  0  0  0  0  0  0  0
    1.5000    0.0000    0.0000 C   0  0  0  0  0  0  0  0  0  0  0  0
    0.7500    1.2990    0.0000 C   0  0  0  0  0  0  0  0  0  0  0  0
   -0.7500    1.2990    0.0000 C   0  0  0  0  0  0  0  0  0  0  0  0
   -1.5000    0.0000    0.0000 C   0  0  0  0  0  0  0  0  0  0  0  0
   -0.7500   -1.2990    0.0000 C   0  0  0  0  0  0  0  0  0  0  0  0
   -0.0000   -0.0000    0.0000 C   0  0  0  0  0  0  0  0  0  0  0  0
    0.7500   -1.2990    0.0000 C   0  0  0  0  0  0  0  0  0  0  0  0
    2.2500   -1.2990    0.0000 O   0  0  0  0  0  0  0  0  0  0  0  0
   -0.0000   -2.5981    0.0000 N   0  0  0  0  0  0  0  0  0  0  0  0
    0.7500   -3.8971    0.0000 C   0  0  0  0  0  0  0  0  0  0  0  0
    2.2054   -3.5342    0.0000 O   0  0  0  0  0  0  0  0  0  0  0  0
   -0.0000   -5.1962    0.0000 C   0  0  0  0  0  0  0  0  0  0  0  0
    0.7500   -6.4952    0.0000 C   0  0  0  0  0  0  0  0  0  0  0  0
   -0.0000   -7.7942    0.0000 C   0  0  0  0  0  0  0  0  0  0  0  0
   -1.5000   -7.7942    0.0000 C   0  0  0  0  0  0  0  0  0  0  0  0
   -2.2500   -9.0933    0.0000 C   0  0  0  0  0  0  0  0  0  0  0  0
   -1.5000  -10.3923    0.0000 C   0  0  0  0  0  0  0  0  0  0  0  0
   -0.0000  -10.3923    0.0000 C   0  0  0  0  0  0  0  0  0  0  0  0
    0.7500   -9.0933    0.0000 C   0  0  0  0  0  0  0  0  0  0  0  0
   -1.5000   -5.1962    0.0000 N   0  0  0  0  0  0  0  0  0  0  0  0
   -2.2500   -6.4952    0.0000 C   0  0  0  0  0  0  0  0  0  0  0  0
   -1.8366   -7.9371    0.0000 O   0  0  0  0  0  0  0  0  0  0  0  0
   -3.7500   -6.4952    0.0000 C   0  0  0  0  0  0  0  0  0  0  0  0
   -4.5000   -7.7942    0.0000 C   0  0  0  0  0  0  0  0  0  0  0  0
   -3.0000   -7.7942    0.0000 C   0  0  0  0  0  0  0  0  0  0  0  0
   -2.2500   -6.4952    0.0000 C   0  0  0  0  0  0  0  0  0  0  0  0
   -0.7500   -6.4952    0.0000 N   0  0  0  0  0  0  0  0  0  0  0  0
   -0.0000   -5.1962    0.0000 C   0  0  0  0  0  0  0  0  0  0  0  0
   -0.7500   -3.8971    0.0000 O   0  0  0  0  0  0  0  0  0  0  0  0
    1.5000   -5.1962    0.0000 C   0  0  0  0  0  0  0  0  0  0  0  0
    2.2500   -3.8971    0.0000 C   0  0  0  0  0  0  0  0  0  0  0  0
    3.7500   -3.8971    0.0000 C   0  0  0  0  0  0  0  0  0  0  0  0
    4.5000   -5.1962    0.0000 C   0  0  0  0  0  0  0  0  0  0  0  0
    6.0000   -5.1962    0.0000 C   0  0  0  0  0  0  0  0  0  0  0  0
    6.7500   -3.8971    0.0000 C   0  0  0  0  0  0  0  0  0  0  0  0
    6.0000   -2.5981    0.0000 C   0  0  0  0  0  0  0  0  0  0  0  0
    4.5000   -2.5981    0.0000 C   0  0  0  0  0  0  0  0  0  0  0  0
    2.2500   -6.4952    0.0000 C   0  0  0  0  0  0  0  0  0  0  0  0
    1.8366   -7.9371    0.0000 O   0  0  0  0  0  0  0  0  0  0  0  0
    3.7054   -6.8582    0.0000 O   0  0  0  0  0  0  0  0  0  0  0  0
   -3.0000   -5.1962    0.0000 C   0  0  0  0  0  0  0  0  0  0  0  0
   -4.5000   -5.1962    0.0000 C   0  0  0  0  0  0  0  0  0  0  0  0
   -5.2500   -6.4952    0.0000 C   0  0  0  0  0  0  0  0  0  0  0  0
  1  2  2  0
  2  3  1  0
  3  4  1  0
  4  5  1  0
  5  6  1  0
  6  7  2  0
  7  8  1  0
  8  9  2  0
  9 10  1  0
 10 11  2  0
  4 12  1  0
 12 13  2  0
 12 14  1  0
 14 15  1  0
 15 16  1  0
 16 17  1  0
 17 18  2  0
 18 19  1  0
 19 20  2  0
 20 21  1  0
 21 22  2  0
 15 23  1  0
 23 24  2  0
 23 25  1  0
  2 26  1  0
 26 27  1  0
 27 28  1  0
 28 29  1  0
 29 30  1  0
 30 31  1  0
 30 32  1  0
 32 33  1  0
 33 34  2  0
 33 35  1  0
 35 36  1  0
 36 37  1  0
 36 38  1  0
 38 39  1  0
 39 40  1  0
 40 41  2  0
 41 42  1  0
 42 43  2  0
 43 44  1  0
 44 45  2  0
 38 46  1  0
 46 47  1  0
 47 48  2  0
 47 49  1  0
 49 50  1  0
 50 51  1  0
 51 52  1  0
 52 53  1  0
 53 54  1  0
 54 55  2  0
 54 56  1  0
 56 57  1  0
 57 58  1  0
 58 59  2  0
 59 60  1  0
 60 61  2  0
 61 62  1  0
 62 63  2  0
 56 64  1  0
 64 65  2  0
 64 66  1  0
 52 67  1  0
 67 68  1  0
 68 69  1  0
 11  6  1  0
 22 17  1  0
 31 26  1  0
 45 40  1  0
 68 49  1  0
 32 28  1  0
 69 50  1  0
 63 58  1  0
M  END
>  <Title>  (13) 
idAAHAgen6

$$$$

     RDKit          2D

 68 74  0  0  0  0  0  0  0  0999 V2000
    7.5000   -0.0000    0.0000 N   0  0  0  0  0  0  0  0  0  0  0  0
    6.7500   -1.2990    0.0000 C   0  0  0  0  0  0  0  0  0  0  0  0
    5.2500   -1.2990    0.0000 O   0  0  0  0  0  0  0  0  0  0  0  0
    7.5000   -2.5981    0.0000 C   0  0  0  0  0  0  0  0  0  0  0  0
    9.0000   -2.5981    0.0000 C   0  0  0  0  0  0  0  0  0  0  0  0
    9.7500   -1.2990    0.0000 C   0  0  0  0  0  0  0  0  0  0  0  0
   11.2500   -1.2990    0.0000 C   0  0  0  0  0  0  0  0  0  0  0  0
   12.0000   -0.0000    0.0000 C   0  0  0  0  0  0  0  0  0  0  0  0
   11.2500    1.2990    0.0000 C   0  0  0  0  0  0  0  0  0  0  0  0
    9.7500    1.2990    0.0000 C   0  0  0  0  0  0  0  0  0  0  0  0
    9.0000   -0.0000    0.0000 C   0  0  0  0  0  0  0  0  0  0  0  0
    6.7500   -3.8971    0.0000 N   0  0  0  0  0  0  0  0  0  0  0  0
    5.2500   -3.8971    0.0000 C   0  0  0  0  0  0  0  0  0  0  0  0
    4.5000   -2.5981    0.0000 O   0  0  0  0  0  0  0  0  0  0  0  0
    4.5000   -5.1962    0.0000 C   0  0  0  0  0  0  0  0  0  0  0  0
    5.2500   -6.4952    0.0000 C   0  0  0  0  0  0  0  0  0  0  0  0
    6.7500   -6.4952    0.0000 C   0  0  0  0  0  0  0  0  0  0  0  0
    7.5000   -7.7942    0.0000 C   0  0  0  0  0  0  0  0  0  0  0  0
    9.0000   -7.7942    0.0000 C   0  0  0  0  0  0  0  0  0  0  0  0
    9.7500   -6.4952    0.0000 C   0  0  0  0  0  0  0  0  0  0  0  0
    9.0000   -5.1962    0.0000 C   0  0  0  0  0  0  0  0  0  0  0  0
    7.5000   -5.1962    0.0000 C   0  0  0  0  0  0  0  0  0  0  0  0
    3.0000   -5.1962    0.0000 N   0  0  0  0  0  0  0  0  0  0  0  0
    2.2500   -3.8971    0.0000 C   0  0  0  0  0  0  0  0  0  0  0  0
    3.0000   -2.5981    0.0000 O   0  0  0  0  0  0  0  0  0  0  0  0
    0.7500   -3.8971    0.0000 C   0  0  0  0  0  0  0  0  0  0  0  0
   -0.0000   -5.1962    0.0000 C   0  0  0  0  0  0  0  0  0  0  0  0
    0.7500   -6.4952    0.0000 C   0  0  0  0  0  0  0  0  0  0  0  0
   -0.0000   -7.7942    0.0000 C   0  0  0  0  0  0  0  0  0  0  0  0
    0.7500   -9.0933    0.0000 C   0  0  0  0  0  0  0  0  0  0  0  0
    2.2500   -9.0933    0.0000 C   0  0  0  0  0  0  0  0  0  0  0  0
    3.0000   -7.7942    0.0000 C   0  0  0  0  0  0  0  0  0  0  0  0
    2.2500   -6.4952    0.0000 C   0  0  0  0  0  0  0  0  0  0  0  0
   -0.0000   -2.5981    0.0000 N   0  0  0  0  0  0  0  0  0  0  0  0
    0.7500   -1.2990    0.0000 C   0  0  0  0  0  0  0  0  0  0  0  0
    2.2500   -1.2990    0.0000 O   0  0  0  0  0  0  0  0  0  0  0  0
   -0.0000    0.0000    0.0000 C   0  0  0  0  0  0  0  0  0  0  0  0
   -1.5000    0.0000    0.0000 C   0  0  0  0  0  0  0  0  0  0  0  0
   -0.7500   -1.2990    0.0000 C   0  0  0  0  0  0  0  0  0  0  0  0
    0.7500   -1.2990    0.0000 C   0  0  0  0  0  0  0  0  0  0  0  0
    1.5000   -2.5981    0.0000 N   0  0  0  0  0  0  0  0  0  0  0  0
    0.7500   -3.8971    0.0000 C   0  0  0  0  0  0  0  0  0  0  0  0
   -0.7500   -3.8971    0.0000 O   0  0  0  0  0  0  0  0  0  0  0  0
    1.5000   -5.1962    0.0000 C   0  0  0  0  0  0  0  0  0  0  0  0
    0.7500   -6.4952    0.0000 C   0  0  0  0  0  0  0  0  0  0  0  0
    1.5000   -7.7942    0.0000 C   0  0  0  0  0  0  0  0  0  0  0  0
    0.7500   -9.0933    0.0000 C   0  0  0  0  0  0  0  0  0  0  0  0
    1.5000  -10.3923    0.0000 C   0  0  0  0  0  0  0  0  0  0  0  0
    3.0000  -10.3923    0.0000 C   0  0  0  0  0  0  0  0  0  0  0  0
    3.7500   -9.0933    0.0000 C   0  0  0  0  0  0  0  0  0  0  0  0
    3.0000   -7.7942    0.0000 C   0  0  0  0  0  0  0  0  0  0  0  0
    3.0000   -5.1962    0.0000 C   0  0  0  0  0  0  0  0  0  0  0  0
    3.7500   -3.8971    0.0000 O   0  0  0  0  0  0  0  0  0  0  0  0
    3.7500   -6.4952    0.0000 N   0  0  0  0  0  0  0  0  0  0  0  0
    5.2500   -6.4952    0.0000 C   0  0  0  0  0  0  0  0  0  0  0  0
    6.0000   -7.7942    0.0000 C   0  0  0  0  0  0  0  0  0  0  0  0
    7.5000   -7.7942    0.0000 C   0  0  0  0  0  0  0  0  0  0  0  0
    8.2500   -9.0933    0.0000 C   0  0  0  0  0  0  0  0  0  0  0  0
    9.7500   -9.0933    0.0000 C   0  0  0  0  0  0  0  0  0  0  0  0
   10.5000   -7.7942    0.0000 C   0  0  0  0  0  0  0  0  0  0  0  0
    9.7500   -6.4952    0.0000 C   0  0  0  0  0  0  0  0  0  0  0  0
    8.2500   -6.4952    0.0000 C   0  0  0  0  0  0  0  0  0  0  0  0
    6.0000   -5.1962    0.0000 C   0  0  0  0  0  0  0  0  0  0  0  0
    5.5866   -3.7542    0.0000 O   0  0  0  0  0  0  0  0  0  0  0  0
    7.4554   -4.8332    0.0000 O   0  0  0  0  0  0  0  0  0  0  0  0
    1.5000    0.0000    0.0000 C   0  0  0  0  0  0  0  0  0  0  0  0
    0.7500    1.2990    0.0000 C   0  0  0  0  0  0  0  0  0  0  0  0
   -0.7500    1.2990    0.0000 C   0  0  0  0  0  0  0  0  0  0  0  0
  1  2  1  0
  2  3  2  0
  2  4  1  0
  4  5  1  0
  5  6  1  0
  6  7  2  0
  7  8  1  0
  8  9  2  0
  9 10  1  0
 10 11  2  0
  4 12  1  0
 12 13  1  0
 13 14  2  0
 13 15  1  0
 15 16  1  0
 16 17  1  0
 17 18  2  0
 18 19  1  0
 19 20  2  0
 20 21  1  0
 21 22  2  0
 15 23  1  0
 23 24  1  0
 24 25  2  0
 24 26  1  0
 26 27  1  0
 27 28  1  0
 28 29  2  0
 29 30  1  0
 30 31  2  0
 31 32  1  0
 32 33  2  0
 26 34  1  0
 34 35  1  0
 35 36  2  0
 35 37  1  0
 37 38  1  0
 38 39  1  0
 39 40  1  0
 40 41  1  0
 41 42  1  0
 42 43  2  0
 42 44  1  0
 44 45  1  0
 45 46  1  0
 46 47  2  0
 47 48  1  0
 48 49  2  0
 49 50  1  0
 50 51  2  0
 44 52  1  0
 52 53  2  0
 52 54  1  0
 54 55  1  0
 55 56  1  0
 56 57  1  0
 57 58  2  0
 58 59  1  0
 59 60  2  0
 60 61  1  0
 61 62  2  0
 55 63  1  0
 63 64  2  0
 63 65  1  0
 40 66  1  0
 66 67  1  0
 67 68  1  0
 11  6  1  0
 22 17  1  0
 33 28  1  0
 67 37  1  0
 68 38  1  0
 51 46  1  0
 62 57  1  0
M  END
>  <Title>  (14) 
idAAHBgen6

$$$$

     RDKit          2D

 63 70  0  0  0  0  0  0  0  0999 V2000
   -1.9605    4.6312    0.0000 O   0  0  0  0  0  0  0  0  0  0  0  0
   -3.2463    3.8586    0.0000 C   0  0  0  0  0  0  0  0  0  0  0  0
   -3.4031    2.3668    0.0000 N   0  0  0  0  0  0  0  0  0  0  0  0
   -2.1895    1.4851    0.0000 C   0  0  0  0  0  0  0  0  0  0  0  0
   -0.8192    2.0952    0.0000 C   0  0  0  0  0  0  0  0  0  0  0  0
    0.3943    1.2135    0.0000 C   0  0  0  0  0  0  0  0  0  0  0  0
    1.2760    0.0000    0.0000 C   0  0  0  0  0  0  0  0  0  0  0  0
    0.3943   -1.2135    0.0000 C   0  0  0  0  0  0  0  0  0  0  0  0
   -1.0323   -0.7500    0.0000 C   0  0  0  0  0  0  0  0  0  0  0  0
   -2.3463   -0.0067    0.0000 C   0  0  0  0  0  0  0  0  0  0  0  0
   -1.0323    0.7500    0.0000 N   0  0  0  0  0  0  0  0  0  0  0  0
   -2.2458    1.6317    0.0000 C   0  0  0  0  0  0  0  0  0  0  0  0
   -2.0890    3.1235    0.0000 C   0  0  0  0  0  0  0  0  0  0  0  0
   -3.3025    4.0051    0.0000 C   0  0  0  0  0  0  0  0  0  0  0  0
   -3.1458    5.4969    0.0000 C   0  0  0  0  0  0  0  0  0  0  0  0
   -4.3593    6.3786    0.0000 C   0  0  0  0  0  0  0  0  0  0  0  0
   -5.7296    5.7685    0.0000 C   0  0  0  0  0  0  0  0  0  0  0  0
   -5.8864    4.2767    0.0000 C   0  0  0  0  0  0  0  0  0  0  0  0
   -4.6729    3.3950    0.0000 N   0  0  0  0  0  0  0  0  0  0  0  0
   -4.4598    4.7402    0.0000 C   0  0  0  0  0  0  0  0  0  0  0  0
   -4.3030    6.2320    0.0000 C   0  0  0  0  0  0  0  0  0  0  0  0
   -5.5165    7.1137    0.0000 C   0  0  0  0  0  0  0  0  0  0  0  0
   -6.9431    7.5772    0.0000 C   0  0  0  0  0  0  0  0  0  0  0  0
   -7.8248    6.3637    0.0000 C   0  0  0  0  0  0  0  0  0  0  0  0
   -6.9431    5.1502    0.0000 C   0  0  0  0  0  0  0  0  0  0  0  0
   -5.8301    4.1301    0.0000 C   0  0  0  0  0  0  0  0  0  0  0  0
   -5.5165    5.6137    0.0000 C   0  0  0  0  0  0  0  0  0  0  0  0
   -4.3030    4.7320    0.0000 C   0  0  0  0  0  0  0  0  0  0  0  0
   -3.1210    5.6556    0.0000 O   0  0  0  0  0  0  0  0  0  0  0  0
   -4.4598    3.2402    0.0000 N   0  0  0  0  0  0  0  0  0  0  0  0
   -3.2463    2.3586    0.0000 C   0  0  0  0  0  0  0  0  0  0  0  0
   -3.4031    0.8668    0.0000 C   0  0  0  0  0  0  0  0  0  0  0  0
   -2.1895   -0.0149    0.0000 C   0  0  0  0  0  0  0  0  0  0  0  0
   -2.3463   -1.5067    0.0000 C   0  0  0  0  0  0  0  0  0  0  0  0
   -1.1328   -2.3884    0.0000 C   0  0  0  0  0  0  0  0  0  0  0  0
    0.2375   -1.7783    0.0000 C   0  0  0  0  0  0  0  0  0  0  0  0
    0.3943   -0.2865    0.0000 C   0  0  0  0  0  0  0  0  0  0  0  0
   -0.8192    0.5952    0.0000 C   0  0  0  0  0  0  0  0  0  0  0  0
   -1.8760    2.9687    0.0000 C   0  0  0  0  0  0  0  0  0  0  0  0
   -1.5385    4.4302    0.0000 O   0  0  0  0  0  0  0  0  0  0  0  0
   -0.6624    2.0870    0.0000 N   0  0  0  0  0  0  0  0  0  0  0  0
    0.7079    2.6971    0.0000 C   0  0  0  0  0  0  0  0  0  0  0  0
    1.9214    1.8154    0.0000 C   0  0  0  0  0  0  0  0  0  0  0  0
    3.2917    2.4255    0.0000 C   0  0  0  0  0  0  0  0  0  0  0  0
    4.5053    1.5438    0.0000 C   0  0  0  0  0  0  0  0  0  0  0  0
    5.8756    2.1539    0.0000 C   0  0  0  0  0  0  0  0  0  0  0  0
    6.0324    3.6457    0.0000 C   0  0  0  0  0  0  0  0  0  0  0  0
    4.8188    4.5274    0.0000 C   0  0  0  0  0  0  0  0  0  0  0  0
    3.4485    3.9173    0.0000 C   0  0  0  0  0  0  0  0  0  0  0  0
    0.8647    4.1889    0.0000 C   0  0  0  0  0  0  0  0  0  0  0  0
   -0.3488    5.0706    0.0000 O   0  0  0  0  0  0  0  0  0  0  0  0
    2.2350    4.7990    0.0000 N   0  0  0  0  0  0  0  0  0  0  0  0
    2.3918    6.2908    0.0000 C   0  0  0  0  0  0  0  0  0  0  0  0
    3.7621    6.9009    0.0000 C   0  0  0  0  0  0  0  0  0  0  0  0
    3.9189    8.3926    0.0000 C   0  0  0  0  0  0  0  0  0  0  0  0
    5.2892    9.0028    0.0000 C   0  0  0  0  0  0  0  0  0  0  0  0
    5.4460   10.4945    0.0000 C   0  0  0  0  0  0  0  0  0  0  0  0
    4.2325   11.3762    0.0000 C   0  0  0  0  0  0  0  0  0  0  0  0
    2.8622   10.7661    0.0000 C   0  0  0  0  0  0  0  0  0  0  0  0
    2.7054    9.2743    0.0000 C   0  0  0  0  0  0  0  0  0  0  0  0
    1.1783    7.1724    0.0000 C   0  0  0  0  0  0  0  0  0  0  0  0
   -0.1921    6.5623    0.0000 O   0  0  0  0  0  0  0  0  0  0  0  0
    1.3351    8.6642    0.0000 O   0  0  0  0  0  0  0  0  0  0  0  0
  1  2  2  0
  2  3  1  0
  3  4  1  0
  4  5  1  0
  5  6  1  0
  6  7  1  0
  7  8  1  0
  8  9  1  0
  9 10  1  0
  9 11  1  0
 11 12  1  0
 12 13  1  0
 13 14  1  0
 14 15  2  0
 15 16  1  0
 16 17  2  0
 17 18  1  0
 18 19  2  0
  2 20  1  0
 20 21  1  0
 21 22  1  0
 22 23  1  0
 23 24  1  0
 24 25  1  0
 25 26  1  0
 25 27  1  0
 27 28  1  0
 28 29  2  0
 28 30  1  0
 30 31  1  0
 31 32  1  0
 32 33  1  0
 33 34  2  0
 34 35  1  0
 35 36  2  0
 36 37  1  0
 37 38  2  0
 31 39  1  0
 39 40  2  0
 39 41  1  0
 41 42  1  0
 42 43  1  0
 43 44  1  0
 44 45  2  0
 45 46  1  0
 46 47  2  0
 47 48  1  0
 48 49  2  0
 42 50  1  0
 50 51  2  0
 50 52  1  0
 52 53  1  0
 53 54  1  0
 54 55  1  0
 55 56  2  0
 56 57  1  0
 57 58  2  0
 58 59  1  0
 59 60  2  0
 53 61  1  0
 61 62  2  0
 61 63  1  0
 10  4  1  0
 19 14  1  0
 26 20  1  0
 38 33  1  0
 49 44  1  0
 60 55  1  0
 11  6  1  0
 27 22  1  0
M  END
>  <Title>  (15) 
idAAHCgen6

$$$$

     RDKit          2D

 61 68  0  0  0  0  0  0  0  0999 V2000
    3.1639   -7.8760    0.0000 O   0  0  0  0  0  0  0  0  0  0  0  0
    3.7500   -6.4952    0.0000 C   0  0  0  0  0  0  0  0  0  0  0  0
    3.0000   -5.1962    0.0000 N   0  0  0  0  0  0  0  0  0  0  0  0
    1.5000   -5.1962    0.0000 C   0  0  0  0  0  0  0  0  0  0  0  0
    0.7500   -6.4952    0.0000 C   0  0  0  0  0  0  0  0  0  0  0  0
   -0.7500   -6.4952    0.0000 C   0  0  0  0  0  0  0  0  0  0  0  0
   -1.5000   -7.7942    0.0000 C   0  0  0  0  0  0  0  0  0  0  0  0
   -3.0000   -7.7942    0.0000 C   0  0  0  0  0  0  0  0  0  0  0  0
   -3.7500   -6.4952    0.0000 C   0  0  0  0  0  0  0  0  0  0  0  0
   -3.0000   -5.1962    0.0000 C   0  0  0  0  0  0  0  0  0  0  0  0
   -1.5000   -5.1962    0.0000 C   0  0  0  0  0  0  0  0  0  0  0  0
    0.7500   -3.8971    0.0000 C   0  0  0  0  0  0  0  0  0  0  0  0
   -0.7500   -3.8971    0.0000 O   0  0  0  0  0  0  0  0  0  0  0  0
    1.5000   -2.5981    0.0000 N   0  0  0  0  0  0  0  0  0  0  0  0
    0.7500   -1.2990    0.0000 C   0  0  0  0  0  0  0  0  0  0  0  0
    1.5000    0.0000    0.0000 C   0  0  0  0  0  0  0  0  0  0  0  0
    0.7500    1.2990    0.0000 C   0  0  0  0  0  0  0  0  0  0  0  0
   -0.7500    1.2990    0.0000 C   0  0  0  0  0  0  0  0  0  0  0  0
   -1.5000    0.0000    0.0000 C   0  0  0  0  0  0  0  0  0  0  0  0
   -0.7500   -1.2990    0.0000 C   0  0  0  0  0  0  0  0  0  0  0  0
   -0.0000   -0.0000    0.0000 N   0  0  0  0  0  0  0  0  0  0  0  0
    0.7500   -1.2990    0.0000 C   0  0  0  0  0  0  0  0  0  0  0  0
   -0.0000   -2.5981    0.0000 C   0  0  0  0  0  0  0  0  0  0  0  0
    0.7500   -3.8971    0.0000 C   0  0  0  0  0  0  0  0  0  0  0  0
   -0.0000   -5.1962    0.0000 C   0  0  0  0  0  0  0  0  0  0  0  0
    0.7500   -6.4952    0.0000 C   0  0  0  0  0  0  0  0  0  0  0  0
    2.2500   -6.4952    0.0000 C   0  0  0  0  0  0  0  0  0  0  0  0
    3.0000   -5.1962    0.0000 C   0  0  0  0  0  0  0  0  0  0  0  0
    2.2500   -3.8971    0.0000 C   0  0  0  0  0  0  0  0  0  0  0  0
    5.2500   -6.4952    0.0000 C   0  0  0  0  0  0  0  0  0  0  0  0
    6.0000   -7.7942    0.0000 C   0  0  0  0  0  0  0  0  0  0  0  0
    7.5000   -7.7942    0.0000 C   0  0  0  0  0  0  0  0  0  0  0  0
    8.2500   -6.4952    0.0000 C   0  0  0  0  0  0  0  0  0  0  0  0
    7.5000   -5.1962    0.0000 C   0  0  0  0  0  0  0  0  0  0  0  0
    6.0000   -5.1962    0.0000 C   0  0  0  0  0  0  0  0  0  0  0  0
    6.7500   -6.4952    0.0000 C   0  0  0  0  0  0  0  0  0  0  0  0
    5.2500   -6.4952    0.0000 C   0  0  0  0  0  0  0  0  0  0  0  0
    4.5000   -7.7942    0.0000 O   0  0  0  0  0  0  0  0  0  0  0  0
    4.5000   -5.1962    0.0000 N   0  0  0  0  0  0  0  0  0  0  0  0
    3.0000   -5.1962    0.0000 C   0  0  0  0  0  0  0  0  0  0  0  0
    2.2500   -3.8971    0.0000 C   0  0  0  0  0  0  0  0  0  0  0  0
    0.7500   -3.8971    0.0000 C   0  0  0  0  0  0  0  0  0  0  0  0
    0.0000   -2.5981    0.0000 C   0  0  0  0  0  0  0  0  0  0  0  0
   -1.5000   -2.5981    0.0000 C   0  0  0  0  0  0  0  0  0  0  0  0
   -2.2500   -3.8971    0.0000 C   0  0  0  0  0  0  0  0  0  0  0  0
   -1.5000   -5.1962    0.0000 C   0  0  0  0  0  0  0  0  0  0  0  0
    0.0000   -5.1962    0.0000 C   0  0  0  0  0  0  0  0  0  0  0  0
    2.2500   -6.4952    0.0000 C   0  0  0  0  0  0  0  0  0  0  0  0
    2.8361   -7.8760    0.0000 O   0  0  0  0  0  0  0  0  0  0  0  0
    0.7500   -6.4952    0.0000 N   0  0  0  0  0  0  0  0  0  0  0  0
   -0.0000   -7.7942    0.0000 C   0  0  0  0  0  0  0  0  0  0  0  0
   -1.5000   -7.7942    0.0000 C   0  0  0  0  0  0  0  0  0  0  0  0
   -2.2500   -9.0933    0.0000 C   0  0  0  0  0  0  0  0  0  0  0  0
   -3.7500   -9.0933    0.0000 C   0  0  0  0  0  0  0  0  0  0  0  0
   -4.5000  -10.3923    0.0000 C   0  0  0  0  0  0  0  0  0  0  0  0
   -3.7500  -11.6913    0.0000 C   0  0  0  0  0  0  0  0  0  0  0  0
   -2.2500  -11.6913    0.0000 C   0  0  0  0  0  0  0  0  0  0  0  0
   -1.5000  -10.3923    0.0000 C   0  0  0  0  0  0  0  0  0  0  0  0
    0.7500   -9.0933    0.0000 C   0  0  0  0  0  0  0  0  0  0  0  0
    2.2500   -9.0933    0.0000 O   0  0  0  0  0  0  0  0  0  0  0  0
   -0.0000  -10.3923    0.0000 O   0  0  0  0  0  0  0  0  0  0  0  0
  1  2  2  0
  2  3  1  0
  3  4  1  0
  4  5  1  0
  5  6  1  0
  6  7  2  0
  7  8  1  0
  8  9  2  0
  9 10  1  0
 10 11  2  0
  4 12  1  0
 12 13  2  0
 12 14  1  0
 14 15  1  0
 15 16  1  0
 16 17  1  0
 17 18  1  0
 18 19  1  0
 19 20  1  0
 19 21  1  0
 21 22  1  0
 22 23  1  0
 23 24  1  0
 24 25  2  0
 25 26  1  0
 26 27  2  0
 27 28  1  0
 28 29  2  0
  2 30  1  0
 30 31  1  0
 31 32  1  0
 32 33  1  0
 33 34  1  0
 34 35  1  0
 34 36  1  0
 36 37  1  0
 37 38  2  0
 37 39  1  0
 39 40  1  0
 40 41  1  0
 41 42  1  0
 42 43  2  0
 43 44  1  0
 44 45  2  0
 45 46  1  0
 46 47  2  0
 40 48  1  0
 48 49  2  0
 48 50  1  0
 50 51  1  0
 51 52  1  0
 52 53  1  0
 53 54  2  0
 54 55  1  0
 55 56  2  0
 56 57  1  0
 57 58  2  0
 51 59  1  0
 59 60  2  0
 59 61  1  0
 11  6  1  0
 20 15  1  0
 29 24  1  0
 35 30  1  0
 47 42  1  0
 58 53  1  0
 21 17  1  0
 36 32  1  0
M  END
>  <Title>  (16) 
idAAHDgen6

$$$$

     RDKit          2D

 41 47  0  0  0  0  0  0  0  0999 V2000
   -1.8760    4.4687    0.0000 O   0  0  0  0  0  0  0  0  0  0  0  0
   -3.2463    3.8586    0.0000 C   0  0  0  0  0  0  0  0  0  0  0  0
   -3.4031    2.3668    0.0000 N   0  0  0  0  0  0  0  0  0  0  0  0
   -2.1895    1.4851    0.0000 C   0  0  0  0  0  0  0  0  0  0  0  0
   -0.8192    2.0952    0.0000 C   0  0  0  0  0  0  0  0  0  0  0  0
    0.3943    1.2135    0.0000 C   0  0  0  0  0  0  0  0  0  0  0  0
    1.2760    0.0000    0.0000 C   0  0  0  0  0  0  0  0  0  0  0  0
    0.3943   -1.2135    0.0000 C   0  0  0  0  0  0  0  0  0  0  0  0
   -1.0323   -0.7500    0.0000 C   0  0  0  0  0  0  0  0  0  0  0  0
   -2.3463   -0.0067    0.0000 C   0  0  0  0  0  0  0  0  0  0  0  0
   -1.0323    0.7500    0.0000 N   0  0  0  0  0  0  0  0  0  0  0  0
   -2.2458    1.6317    0.0000 C   0  0  0  0  0  0  0  0  0  0  0  0
   -2.0890    3.1235    0.0000 C   0  0  0  0  0  0  0  0  0  0  0  0
   -3.3025    4.0051    0.0000 C   0  0  0  0  0  0  0  0  0  0  0  0
   -3.1458    5.4969    0.0000 C   0  0  0  0  0  0  0  0  0  0  0  0
   -4.3593    6.3786    0.0000 C   0  0  0  0  0  0  0  0  0  0  0  0
   -5.7296    5.7685    0.0000 C   0  0  0  0  0  0  0  0  0  0  0  0
   -5.8864    4.2767    0.0000 C   0  0  0  0  0  0  0  0  0  0  0  0
   -4.6729    3.3950    0.0000 C   0  0  0  0  0  0  0  0  0  0  0  0
   -4.4598    4.7402    0.0000 C   0  0  0  0  0  0  0  0  0  0  0  0
   -4.3030    6.2320    0.0000 C   0  0  0  0  0  0  0  0  0  0  0  0
   -5.5165    7.1137    0.0000 C   0  0  0  0  0  0  0  0  0  0  0  0
   -6.9431    7.5772    0.0000 C   0  0  0  0  0  0  0  0  0  0  0  0
   -7.8248    6.3637    0.0000 C   0  0  0  0  0  0  0  0  0  0  0  0
   -6.9431    5.1502    0.0000 C   0  0  0  0  0  0  0  0  0  0  0  0
   -5.8301    4.1301    0.0000 C   0  0  0  0  0  0  0  0  0  0  0  0
   -5.5165    5.6137    0.0000 N   0  0  0  0  0  0  0  0  0  0  0  0
   -4.3030    4.7320    0.0000 C   0  0  0  0  0  0  0  0  0  0  0  0
   -4.4598    3.2402    0.0000 C   0  0  0  0  0  0  0  0  0  0  0  0
   -3.2463    2.3586    0.0000 C   0  0  0  0  0  0  0  0  0  0  0  0
   -3.4031    0.8668    0.0000 C   0  0  0  0  0  0  0  0  0  0  0  0
   -2.1895   -0.0149    0.0000 C   0  0  0  0  0  0  0  0  0  0  0  0
   -0.8192    0.5952    0.0000 C   0  0  0  0  0  0  0  0  0  0  0  0
    0.3943   -0.2865    0.0000 C   0  0  0  0  0  0  0  0  0  0  0  0
    0.2375   -1.7783    0.0000 C   0  0  0  0  0  0  0  0  0  0  0  0
    1.4510   -2.6599    0.0000 C   0  0  0  0  0  0  0  0  0  0  0  0
    2.8213   -2.0498    0.0000 C   0  0  0  0  0  0  0  0  0  0  0  0
    2.9781   -0.5580    0.0000 C   0  0  0  0  0  0  0  0  0  0  0  0
    1.7646    0.3236    0.0000 N   0  0  0  0  0  0  0  0  0  0  0  0
   -0.6624    2.0870    0.0000 C   0  0  0  0  0  0  0  0  0  0  0  0
   -1.8760    2.9687    0.0000 C   0  0  0  0  0  0  0  0  0  0  0  0
  1  2  2  0
  2  3  1  0
  3  4  1  0
  4  5  1  0
  5  6  1  0
  6  7  1  0
  7  8  1  0
  8  9  1  0
  9 10  1  0
  9 11  1  0
 11 12  1  0
 12 13  1  0
 13 14  1  0
 14 15  2  0
 15 16  1  0
 16 17  2  0
 17 18  1  0
 18 19  2  0
  2 20  1  0
 20 21  1  0
 21 22  1  0
 22 23  1  0
 23 24  1  0
 24 25  1  0
 25 26  1  0
 25 27  1  0
 27 28  1  0
 28 29  1  0
 29 30  1  0
 30 31  2  0
 31 32  1  0
 32 33  2  0
 33 34  1  0
 34 35  2  0
 35 36  1  0
 36 37  2  0
 37 38  1  0
 38 39  2  0
 33 40  1  0
 40 41  2  0
 10  4  1  0
 19 14  1  0
 26 20  1  0
 41 30  1  0
 11  6  1  0
 27 22  1  0
 39 34  1  0
M  END
>  <Title>  (17) 
idAAHEgen6

$$$$

     RDKit          2D

 64 71  0  0  0  0  0  0  0  0999 V2000
   -5.2564    0.4091    0.0000 O   0  0  0  0  0  0  0  0  0  0  0  0
   -4.2865    1.5533    0.0000 C   0  0  0  0  0  0  0  0  0  0  0  0
   -4.7925    2.9654    0.0000 N   0  0  0  0  0  0  0  0  0  0  0  0
   -6.2684    3.2332    0.0000 C   0  0  0  0  0  0  0  0  0  0  0  0
   -6.7744    4.6453    0.0000 C   0  0  0  0  0  0  0  0  0  0  0  0
   -8.2503    4.9131    0.0000 C   0  0  0  0  0  0  0  0  0  0  0  0
   -9.7367    4.7118    0.0000 C   0  0  0  0  0  0  0  0  0  0  0  0
  -10.0046    3.2359    0.0000 C   0  0  0  0  0  0  0  0  0  0  0  0
   -8.6837    2.5251    0.0000 C   0  0  0  0  0  0  0  0  0  0  0  0
   -7.2383    2.0890    0.0000 C   0  0  0  0  0  0  0  0  0  0  0  0
   -7.5995    3.5617    0.0000 N   0  0  0  0  0  0  0  0  0  0  0  0
   -6.1236    3.2939    0.0000 C   0  0  0  0  0  0  0  0  0  0  0  0
   -5.1537    4.4381    0.0000 C   0  0  0  0  0  0  0  0  0  0  0  0
   -3.6778    4.1703    0.0000 C   0  0  0  0  0  0  0  0  0  0  0  0
   -3.1718    2.7582    0.0000 C   0  0  0  0  0  0  0  0  0  0  0  0
   -1.6959    2.4904    0.0000 C   0  0  0  0  0  0  0  0  0  0  0  0
   -0.7260    3.6346    0.0000 C   0  0  0  0  0  0  0  0  0  0  0  0
   -1.2320    5.0467    0.0000 C   0  0  0  0  0  0  0  0  0  0  0  0
   -2.7079    5.3145    0.0000 C   0  0  0  0  0  0  0  0  0  0  0  0
   -2.8106    1.2855    0.0000 C   0  0  0  0  0  0  0  0  0  0  0  0
   -1.9290    2.4990    0.0000 C   0  0  0  0  0  0  0  0  0  0  0  0
   -0.4305    2.5663    0.0000 O   0  0  0  0  0  0  0  0  0  0  0  0
    0.3943    1.2135    0.0000 C   0  0  0  0  0  0  0  0  0  0  0  0
    1.2760    0.0000    0.0000 C   0  0  0  0  0  0  0  0  0  0  0  0
    0.3943   -1.2135    0.0000 C   0  0  0  0  0  0  0  0  0  0  0  0
   -1.0323   -0.7500    0.0000 C   0  0  0  0  0  0  0  0  0  0  0  0
   -2.4116   -0.1605    0.0000 C   0  0  0  0  0  0  0  0  0  0  0  0
   -1.0323    0.7500    0.0000 C   0  0  0  0  0  0  0  0  0  0  0  0
   -2.2458    1.6317    0.0000 C   0  0  0  0  0  0  0  0  0  0  0  0
   -3.6161    1.0216    0.0000 O   0  0  0  0  0  0  0  0  0  0  0  0
   -2.0890    3.1235    0.0000 N   0  0  0  0  0  0  0  0  0  0  0  0
   -3.3025    4.0051    0.0000 C   0  0  0  0  0  0  0  0  0  0  0  0
   -3.1458    5.4969    0.0000 C   0  0  0  0  0  0  0  0  0  0  0  0
   -4.3593    6.3786    0.0000 C   0  0  0  0  0  0  0  0  0  0  0  0
   -4.2025    7.8704    0.0000 C   0  0  0  0  0  0  0  0  0  0  0  0
   -5.4160    8.7521    0.0000 C   0  0  0  0  0  0  0  0  0  0  0  0
   -6.7863    8.1420    0.0000 C   0  0  0  0  0  0  0  0  0  0  0  0
   -6.9431    6.6502    0.0000 C   0  0  0  0  0  0  0  0  0  0  0  0
   -5.7296    5.7685    0.0000 C   0  0  0  0  0  0  0  0  0  0  0  0
   -4.6729    3.3950    0.0000 C   0  0  0  0  0  0  0  0  0  0  0  0
   -5.1860    1.9855    0.0000 O   0  0  0  0  0  0  0  0  0  0  0  0
   -5.8864    4.2767    0.0000 N   0  0  0  0  0  0  0  0  0  0  0  0
   -7.2567    3.6666    0.0000 C   0  0  0  0  0  0  0  0  0  0  0  0
   -8.4702    4.5483    0.0000 C   0  0  0  0  0  0  0  0  0  0  0  0
   -9.8406    3.9382    0.0000 C   0  0  0  0  0  0  0  0  0  0  0  0
  -11.0541    4.8199    0.0000 C   0  0  0  0  0  0  0  0  0  0  0  0
  -12.4244    4.2098    0.0000 C   0  0  0  0  0  0  0  0  0  0  0  0
  -12.5812    2.7180    0.0000 C   0  0  0  0  0  0  0  0  0  0  0  0
  -11.3677    1.8363    0.0000 C   0  0  0  0  0  0  0  0  0  0  0  0
   -9.9973    2.4464    0.0000 C   0  0  0  0  0  0  0  0  0  0  0  0
   -7.4135    2.1748    0.0000 C   0  0  0  0  0  0  0  0  0  0  0  0
   -6.2000    1.2931    0.0000 O   0  0  0  0  0  0  0  0  0  0  0  0
   -8.7838    1.5647    0.0000 N   0  0  0  0  0  0  0  0  0  0  0  0
   -8.9406    0.0729    0.0000 C   0  0  0  0  0  0  0  0  0  0  0  0
  -10.3109   -0.5372    0.0000 C   0  0  0  0  0  0  0  0  0  0  0  0
  -10.4677   -2.0290    0.0000 C   0  0  0  0  0  0  0  0  0  0  0  0
  -11.8380   -2.6391    0.0000 C   0  0  0  0  0  0  0  0  0  0  0  0
  -11.9948   -4.1308    0.0000 C   0  0  0  0  0  0  0  0  0  0  0  0
  -10.7813   -5.0125    0.0000 C   0  0  0  0  0  0  0  0  0  0  0  0
   -9.4110   -4.4024    0.0000 C   0  0  0  0  0  0  0  0  0  0  0  0
   -9.2542   -2.9106    0.0000 C   0  0  0  0  0  0  0  0  0  0  0  0
   -7.7271   -0.8087    0.0000 C   0  0  0  0  0  0  0  0  0  0  0  0
   -6.3568   -0.1986    0.0000 O   0  0  0  0  0  0  0  0  0  0  0  0
   -7.8839   -2.3005    0.0000 O   0  0  0  0  0  0  0  0  0  0  0  0
  1  2  2  0
  2  3  1  0
  3  4  1  0
  4  5  1  0
  5  6  1  0
  6  7  1  0
  7  8  1  0
  8  9  1  0
  9 10  1  0
  9 11  1  0
 11 12  1  0
 12 13  1  0
 13 14  1  0
 14 15  2  0
 15 16  1  0
 16 17  2  0
 17 18  1  0
 18 19  2  0
  2 20  1  0
 20 21  1  0
 21 22  1  0
 22 23  1  0
 23 24  1  0
 24 25  1  0
 25 26  1  0
 26 27  1  0
 26 28  1  0
 28 29  1  0
 29 30  2  0
 29 31  1  0
 31 32  1  0
 32 33  1  0
 33 34  1  0
 34 35  2  0
 35 36  1  0
 36 37  2  0
 37 38  1  0
 38 39  2  0
 32 40  1  0
 40 41  2  0
 40 42  1  0
 42 43  1  0
 43 44  1  0
 44 45  1  0
 45 46  2  0
 46 47  1  0
 47 48  2  0
 48 49  1  0
 49 50  2  0
 43 51  1  0
 51 52  2  0
 51 53  1  0
 53 54  1  0
 54 55  1  0
 55 56  1  0
 56 57  2  0
 57 58  1  0
 58 59  2  0
 59 60  1  0
 60 61  2  0
 54 62  1  0
 62 63  2  0
 62 64  1  0
 10  4  1  0
 19 14  1  0
 27 20  1  0
 39 34  1  0
 50 45  1  0
 61 56  1  0
 11  6  1  0
 28 23  1  0
M  END
>  <Title>  (18) 
idAAHFgen6

$$$$

     RDKit          2D

 52 58  0  0  0  0  0  0  0  0999 V2000
  -12.0077    0.6018    0.0000 C   0  0  0  0  0  0  0  0  0  0  0  0
  -10.6563   -0.0491    0.0000 C   0  0  0  0  0  0  0  0  0  0  0  0
   -9.4169    0.7959    0.0000 C   0  0  0  0  0  0  0  0  0  0  0  0
  -10.5442   -1.5449    0.0000 C   0  0  0  0  0  0  0  0  0  0  0  0
  -11.8432   -2.2949    0.0000 C   0  0  0  0  0  0  0  0  0  0  0  0
  -12.0668   -3.7781    0.0000 C   0  0  0  0  0  0  0  0  0  0  0  0
  -11.0465   -4.8777    0.0000 C   0  0  0  0  0  0  0  0  0  0  0  0
   -9.5507   -4.7656    0.0000 C   0  0  0  0  0  0  0  0  0  0  0  0
   -8.7057   -3.5262    0.0000 C   0  0  0  0  0  0  0  0  0  0  0  0
   -7.6855   -4.6258    0.0000 O   0  0  0  0  0  0  0  0  0  0  0  0
   -7.4067   -2.7762    0.0000 C   0  0  0  0  0  0  0  0  0  0  0  0
   -7.4067   -1.2762    0.0000 O   0  0  0  0  0  0  0  0  0  0  0  0
   -6.1076   -3.5262    0.0000 C   0  0  0  0  0  0  0  0  0  0  0  0
   -4.8086   -2.7762    0.0000 C   0  0  0  0  0  0  0  0  0  0  0  0
   -3.6595   -3.7404    0.0000 C   0  0  0  0  0  0  0  0  0  0  0  0
   -2.1595   -3.7404    0.0000 C   0  0  0  0  0  0  0  0  0  0  0  0
   -1.0105   -2.7762    0.0000 C   0  0  0  0  0  0  0  0  0  0  0  0
   -0.7500   -1.2990    0.0000 C   0  0  0  0  0  0  0  0  0  0  0  0
    0.2142   -2.4481    0.0000 C   0  0  0  0  0  0  0  0  0  0  0  0
    0.7500   -1.2990    0.0000 C   0  0  0  0  0  0  0  0  0  0  0  0
    1.5000   -2.5981    0.0000 C   0  0  0  0  0  0  0  0  0  0  0  0
    3.0000   -2.5981    0.0000 C   0  0  0  0  0  0  0  0  0  0  0  0
    3.7500   -3.8971    0.0000 C   0  0  0  0  0  0  0  0  0  0  0  0
    5.2418   -4.0539    0.0000 C   0  0  0  0  0  0  0  0  0  0  0  0
    5.5537   -5.5211    0.0000 C   0  0  0  0  0  0  0  0  0  0  0  0
    4.2546   -6.2711    0.0000 C   0  0  0  0  0  0  0  0  0  0  0  0
    3.1399   -5.2674    0.0000 C   0  0  0  0  0  0  0  0  0  0  0  0
    1.5000    0.0000    0.0000 C   0  0  0  0  0  0  0  0  0  0  0  0
    0.7500    1.2990    0.0000 C   0  0  0  0  0  0  0  0  0  0  0  0
   -0.7500    1.2990    0.0000 C   0  0  0  0  0  0  0  0  0  0  0  0
   -1.5000    0.0000    0.0000 C   0  0  0  0  0  0  0  0  0  0  0  0
   -2.0130    1.4095    0.0000 C   0  0  0  0  0  0  0  0  0  0  0  0
   -2.9095    0.5130    0.0000 C   0  0  0  0  0  0  0  0  0  0  0  0
   -2.9095    2.0130    0.0000 C   0  0  0  0  0  0  0  0  0  0  0  0
   -1.6105    2.7630    0.0000 C   0  0  0  0  0  0  0  0  0  0  0  0
   -1.6105    4.2630    0.0000 C   0  0  0  0  0  0  0  0  0  0  0  0
   -0.3115    5.0130    0.0000 C   0  0  0  0  0  0  0  0  0  0  0  0
   -0.3115    6.5130    0.0000 C   0  0  0  0  0  0  0  0  0  0  0  0
   -1.6105    7.2630    0.0000 C   0  0  0  0  0  0  0  0  0  0  0  0
   -2.9095    6.5130    0.0000 C   0  0  0  0  0  0  0  0  0  0  0  0
   -0.5124    4.2630    0.0000 C   0  0  0  0  0  0  0  0  0  0  0  0
    0.9876    4.2630    0.0000 C   0  0  0  0  0  0  0  0  0  0  0  0
    0.9876    5.7630    0.0000 C   0  0  0  0  0  0  0  0  0  0  0  0
   -0.3115    3.5130    0.0000 C   0  0  0  0  0  0  0  0  0  0  0  0
   -2.9095    5.0130    0.0000 C   0  0  0  0  0  0  0  0  0  0  0  0
   -4.3191    0.0000    0.0000 C   0  0  0  0  0  0  0  0  0  0  0  0
   -5.2833    1.1491    0.0000 C   0  0  0  0  0  0  0  0  0  0  0  0
   -4.1342    2.1132    0.0000 C   0  0  0  0  0  0  0  0  0  0  0  0
   -6.4323    0.1849    0.0000 C   0  0  0  0  0  0  0  0  0  0  0  0
   -6.2474    2.2981    0.0000 C   0  0  0  0  0  0  0  0  0  0  0  0
   -5.0691   -1.2990    0.0000 C   0  0  0  0  0  0  0  0  0  0  0  0
   -9.1479   -2.0929    0.0000 C   0  0  0  0  0  0  0  0  0  0  0  0
  1  2  1  0
  2  3  1  0
  2  4  1  0
  4  5  1  0
  5  6  1  0
  6  7  1  0
  7  8  1  0
  8  9  1  0
  9 10  1  0
  9 11  1  0
 11 12  1  0
 11 13  1  0
 13 14  1  0
 14 15  1  0
 15 16  1  0
 16 17  1  0
 17 18  1  0
 18 19  1  0
 18 20  1  0
 20 21  1  0
 21 22  1  0
 22 23  1  0
 23 24  1  0
 24 25  1  0
 25 26  1  0
 26 27  1  0
 20 28  1  0
 28 29  1  0
 29 30  1  0
 30 31  1  0
 31 32  1  0
 31 33  1  0
 33 34  1  0
 34 35  1  0
 35 36  1  0
 36 37  1  0
 37 38  1  0
 38 39  1  0
 39 40  1  0
 40 41  1  0
 41 42  1  0
 42 43  1  0
 42 44  1  0
 40 45  1  0
 33 46  1  0
 46 47  1  0
 47 48  1  0
 47 49  1  0
 47 50  1  0
 46 51  1  0
  9 52  1  0
 52  4  1  0
 51 14  1  0
 31 18  1  0
 44 36  1  0
 27 23  1  0
 45 36  1  0
 43 38  1  0
M  END
>  <Title>  (19) 
idAAHGgen6

$$$$

     RDKit          2D

 65 72  0  0  0  0  0  0  0  0999 V2000
   -4.5000   -2.5981    0.0000 O   0  0  0  0  0  0  0  0  0  0  0  0
   -3.7500   -3.8971    0.0000 C   0  0  0  0  0  0  0  0  0  0  0  0
   -2.2500   -3.8971    0.0000 N   0  0  0  0  0  0  0  0  0  0  0  0
   -1.5000   -2.5981    0.0000 C   0  0  0  0  0  0  0  0  0  0  0  0
   -0.0000   -2.5981    0.0000 C   0  0  0  0  0  0  0  0  0  0  0  0
    0.7500   -1.2990    0.0000 C   0  0  0  0  0  0  0  0  0  0  0  0
    1.5000    0.0000    0.0000 C   0  0  0  0  0  0  0  0  0  0  0  0
    0.7500    1.2990    0.0000 C   0  0  0  0  0  0  0  0  0  0  0  0
   -0.7500    1.2990    0.0000 C   0  0  0  0  0  0  0  0  0  0  0  0
   -1.5000    0.0000    0.0000 C   0  0  0  0  0  0  0  0  0  0  0  0
   -2.2500   -1.2990    0.0000 C   0  0  0  0  0  0  0  0  0  0  0  0
   -0.7500   -1.2990    0.0000 N   0  0  0  0  0  0  0  0  0  0  0  0
   -1.5000   -2.5981    0.0000 C   0  0  0  0  0  0  0  0  0  0  0  0
   -3.0000   -2.5981    0.0000 C   0  0  0  0  0  0  0  0  0  0  0  0
   -3.7500   -3.8971    0.0000 C   0  0  0  0  0  0  0  0  0  0  0  0
   -5.2500   -3.8971    0.0000 C   0  0  0  0  0  0  0  0  0  0  0  0
   -6.0000   -5.1962    0.0000 C   0  0  0  0  0  0  0  0  0  0  0  0
   -5.2500   -6.4952    0.0000 C   0  0  0  0  0  0  0  0  0  0  0  0
   -3.7500   -6.4952    0.0000 C   0  0  0  0  0  0  0  0  0  0  0  0
   -3.0000   -5.1962    0.0000 C   0  0  0  0  0  0  0  0  0  0  0  0
   -4.5000   -5.1962    0.0000 C   0  0  0  0  0  0  0  0  0  0  0  0
   -3.6550   -6.4355    0.0000 C   0  0  0  0  0  0  0  0  0  0  0  0
   -4.0972   -7.8689    0.0000 O   0  0  0  0  0  0  0  0  0  0  0  0
   -5.6489   -8.1890    0.0000 C   0  0  0  0  0  0  0  0  0  0  0  0
   -7.0887   -8.6096    0.0000 C   0  0  0  0  0  0  0  0  0  0  0  0
   -7.9337   -7.3702    0.0000 C   0  0  0  0  0  0  0  0  0  0  0  0
   -7.0161   -6.1836    0.0000 C   0  0  0  0  0  0  0  0  0  0  0  0
   -5.9958   -5.0841    0.0000 C   0  0  0  0  0  0  0  0  0  0  0  0
   -5.6040   -6.6896    0.0000 C   0  0  0  0  0  0  0  0  0  0  0  0
   -4.3646   -5.8446    0.0000 C   0  0  0  0  0  0  0  0  0  0  0  0
   -4.4767   -4.3488    0.0000 O   0  0  0  0  0  0  0  0  0  0  0  0
   -3.0132   -6.4955    0.0000 N   0  0  0  0  0  0  0  0  0  0  0  0
   -1.7738   -5.6505    0.0000 C   0  0  0  0  0  0  0  0  0  0  0  0
   -0.4224   -6.3013    0.0000 C   0  0  0  0  0  0  0  0  0  0  0  0
    0.8170   -5.4563    0.0000 C   0  0  0  0  0  0  0  0  0  0  0  0
    2.1684   -6.1072    0.0000 C   0  0  0  0  0  0  0  0  0  0  0  0
    3.4078   -5.2622    0.0000 C   0  0  0  0  0  0  0  0  0  0  0  0
    3.2957   -3.7664    0.0000 C   0  0  0  0  0  0  0  0  0  0  0  0
    1.9443   -3.1156    0.0000 C   0  0  0  0  0  0  0  0  0  0  0  0
    0.7049   -3.9605    0.0000 C   0  0  0  0  0  0  0  0  0  0  0  0
   -1.8859   -4.1547    0.0000 C   0  0  0  0  0  0  0  0  0  0  0  0
   -3.2374   -3.5039    0.0000 O   0  0  0  0  0  0  0  0  0  0  0  0
   -0.6466   -3.3097    0.0000 N   0  0  0  0  0  0  0  0  0  0  0  0
   -0.7586   -1.8139    0.0000 C   0  0  0  0  0  0  0  0  0  0  0  0
    0.4807   -0.9689    0.0000 C   0  0  0  0  0  0  0  0  0  0  0  0
    0.3686    0.5269    0.0000 C   0  0  0  0  0  0  0  0  0  0  0  0
    1.6080    1.3719    0.0000 C   0  0  0  0  0  0  0  0  0  0  0  0
    1.4959    2.8677    0.0000 C   0  0  0  0  0  0  0  0  0  0  0  0
    0.1444    3.5185    0.0000 C   0  0  0  0  0  0  0  0  0  0  0  0
   -1.0949    2.6735    0.0000 C   0  0  0  0  0  0  0  0  0  0  0  0
   -0.9828    1.1777    0.0000 C   0  0  0  0  0  0  0  0  0  0  0  0
   -2.1101   -1.1631    0.0000 C   0  0  0  0  0  0  0  0  0  0  0  0
   -3.5171   -1.6831    0.0000 O   0  0  0  0  0  0  0  0  0  0  0  0
   -2.2222    0.3327    0.0000 N   0  0  0  0  0  0  0  0  0  0  0  0
   -3.5736    0.9836    0.0000 C   0  0  0  0  0  0  0  0  0  0  0  0
   -3.6857    2.4794    0.0000 C   0  0  0  0  0  0  0  0  0  0  0  0
   -5.0372    3.1302    0.0000 C   0  0  0  0  0  0  0  0  0  0  0  0
   -5.1493    4.6260    0.0000 C   0  0  0  0  0  0  0  0  0  0  0  0
   -6.5007    5.2768    0.0000 C   0  0  0  0  0  0  0  0  0  0  0  0
   -7.7401    4.4318    0.0000 C   0  0  0  0  0  0  0  0  0  0  0  0
   -7.6280    2.9360    0.0000 C   0  0  0  0  0  0  0  0  0  0  0  0
   -6.2766    2.2852    0.0000 C   0  0  0  0  0  0  0  0  0  0  0  0
   -4.8130    0.1386    0.0000 C   0  0  0  0  0  0  0  0  0  0  0  0
   -4.7009   -1.3572    0.0000 O   0  0  0  0  0  0  0  0  0  0  0  0
   -6.1645    0.7894    0.0000 O   0  0  0  0  0  0  0  0  0  0  0  0
  1  2  2  0
  2  3  1  0
  3  4  1  0
  4  5  1  0
  5  6  1  0
  6  7  1  0
  7  8  1  0
  8  9  1  0
  9 10  1  0
 10 11  1  0
 10 12  1  0
 12 13  1  0
 13 14  1  0
 14 15  1  0
 15 16  2  0
 16 17  1  0
 17 18  2  0
 18 19  1  0
 19 20  2  0
  2 21  1  0
 21 22  1  0
 22 23  1  0
 23 24  1  0
 24 25  1  0
 25 26  1  0
 26 27  1  0
 27 28  1  0
 27 29  1  0
 29 30  1  0
 30 31  2  0
 30 32  1  0
 32 33  1  0
 33 34  1  0
 34 35  1  0
 35 36  2  0
 36 37  1  0
 37 38  2  0
 38 39  1  0
 39 40  2  0
 33 41  1  0
 41 42  2  0
 41 43  1  0
 43 44  1  0
 44 45  1  0
 45 46  1  0
 46 47  2  0
 47 48  1  0
 48 49  2  0
 49 50  1  0
 50 51  2  0
 44 52  1  0
 52 53  2  0
 52 54  1  0
 54 55  1  0
 55 56  1  0
 56 57  1  0
 57 58  2  0
 58 59  1  0
 59 60  2  0
 60 61  1  0
 61 62  2  0
 55 63  1  0
 63 64  2  0
 63 65  1  0
 11  4  1  0
 20 15  1  0
 28 21  1  0
 40 35  1  0
 51 46  1  0
 62 57  1  0
 12  6  1  0
 29 24  1  0
M  END
>  <Title>  (20) 
idAAHHgen6

$$$$

     RDKit          2D

 35 40  0  0  0  0  0  0  0  0999 V2000
   -1.8760    4.4687    0.0000 O   0  0  0  0  0  0  0  0  0  0  0  0
   -3.2463    3.8586    0.0000 C   0  0  0  0  0  0  0  0  0  0  0  0
   -3.4031    2.3668    0.0000 N   0  0  0  0  0  0  0  0  0  0  0  0
   -2.1895    1.4851    0.0000 C   0  0  0  0  0  0  0  0  0  0  0  0
   -0.8192    2.0952    0.0000 C   0  0  0  0  0  0  0  0  0  0  0  0
    0.3943    1.2135    0.0000 C   0  0  0  0  0  0  0  0  0  0  0  0
    1.2760    0.0000    0.0000 C   0  0  0  0  0  0  0  0  0  0  0  0
    0.3943   -1.2135    0.0000 C   0  0  0  0  0  0  0  0  0  0  0  0
   -1.0323   -0.7500    0.0000 C   0  0  0  0  0  0  0  0  0  0  0  0
   -2.3463   -0.0067    0.0000 C   0  0  0  0  0  0  0  0  0  0  0  0
   -1.0323    0.7500    0.0000 N   0  0  0  0  0  0  0  0  0  0  0  0
   -2.2458    1.6317    0.0000 C   0  0  0  0  0  0  0  0  0  0  0  0
   -2.0890    3.1235    0.0000 C   0  0  0  0  0  0  0  0  0  0  0  0
   -3.3025    4.0051    0.0000 C   0  0  0  0  0  0  0  0  0  0  0  0
   -3.1458    5.4969    0.0000 C   0  0  0  0  0  0  0  0  0  0  0  0
   -4.3593    6.3786    0.0000 C   0  0  0  0  0  0  0  0  0  0  0  0
   -5.7296    5.7685    0.0000 C   0  0  0  0  0  0  0  0  0  0  0  0
   -5.8864    4.2767    0.0000 C   0  0  0  0  0  0  0  0  0  0  0  0
   -4.6729    3.3950    0.0000 C   0  0  0  0  0  0  0  0  0  0  0  0
   -4.4598    4.7402    0.0000 C   0  0  0  0  0  0  0  0  0  0  0  0
   -4.3030    6.2320    0.0000 C   0  0  0  0  0  0  0  0  0  0  0  0
   -5.5165    7.1137    0.0000 C   0  0  0  0  0  0  0  0  0  0  0  0
   -6.9431    7.5772    0.0000 C   0  0  0  0  0  0  0  0  0  0  0  0
   -7.8248    6.3637    0.0000 C   0  0  0  0  0  0  0  0  0  0  0  0
   -6.9431    5.1502    0.0000 C   0  0  0  0  0  0  0  0  0  0  0  0
   -5.8301    4.1301    0.0000 C   0  0  0  0  0  0  0  0  0  0  0  0
   -5.5165    5.6137    0.0000 N   0  0  0  0  0  0  0  0  0  0  0  0
   -4.3030    4.7320    0.0000 C   0  0  0  0  0  0  0  0  0  0  0  0
   -4.4598    3.2402    0.0000 C   0  0  0  0  0  0  0  0  0  0  0  0
   -3.2463    2.3586    0.0000 C   0  0  0  0  0  0  0  0  0  0  0  0
   -3.4031    0.8668    0.0000 C   0  0  0  0  0  0  0  0  0  0  0  0
   -2.1895   -0.0149    0.0000 C   0  0  0  0  0  0  0  0  0  0  0  0
   -0.8192    0.5952    0.0000 C   0  0  0  0  0  0  0  0  0  0  0  0
   -0.6624    2.0870    0.0000 C   0  0  0  0  0  0  0  0  0  0  0  0
   -1.8760    2.9687    0.0000 C   0  0  0  0  0  0  0  0  0  0  0  0
  1  2  2  0
  2  3  1  0
  3  4  1  0
  4  5  1  0
  5  6  1  0
  6  7  1  0
  7  8  1  0
  8  9  1  0
  9 10  1  0
  9 11  1  0
 11 12  1  0
 12 13  1  0
 13 14  1  0
 14 15  2  0
 15 16  1  0
 16 17  2  0
 17 18  1  0
 18 19  2  0
  2 20  1  0
 20 21  1  0
 21 22  1  0
 22 23  1  0
 23 24  1  0
 24 25  1  0
 25 26  1  0
 25 27  1  0
 27 28  1  0
 28 29  1  0
 29 30  1  0
 30 31  2  0
 31 32  1  0
 32 33  2  0
 33 34  1  0
 34 35  2  0
 10  4  1  0
 19 14  1  0
 26 20  1  0
 35 30  1  0
 11  6  1  0
 27 22  1  0
M  END
>  <Title>  (21) 
idAAHIgen6

$$$$

     RDKit          2D

 47 50  0  0  0  0  0  0  0  0999 V2000
    0.7500   -6.4952    0.0000 N   0  0  0  0  0  0  0  0  0  0  0  0
    1.5000   -5.1962    0.0000 C   0  0  0  0  0  0  0  0  0  0  0  0
    3.0000   -5.1962    0.0000 O   0  0  0  0  0  0  0  0  0  0  0  0
    0.7500   -3.8971    0.0000 C   0  0  0  0  0  0  0  0  0  0  0  0
    1.5000   -2.5981    0.0000 C   0  0  0  0  0  0  0  0  0  0  0  0
    0.7500   -1.2990    0.0000 C   0  0  0  0  0  0  0  0  0  0  0  0
    1.5000    0.0000    0.0000 C   0  0  0  0  0  0  0  0  0  0  0  0
    0.7500    1.2990    0.0000 C   0  0  0  0  0  0  0  0  0  0  0  0
   -0.7500    1.2990    0.0000 C   0  0  0  0  0  0  0  0  0  0  0  0
   -1.5000    0.0000    0.0000 C   0  0  0  0  0  0  0  0  0  0  0  0
   -0.7500   -1.2990    0.0000 C   0  0  0  0  0  0  0  0  0  0  0  0
   -0.7500   -3.8971    0.0000 N   0  0  0  0  0  0  0  0  0  0  0  0
   -1.5000   -5.1962    0.0000 C   0  0  0  0  0  0  0  0  0  0  0  0
   -0.7500   -6.4952    0.0000 O   0  0  0  0  0  0  0  0  0  0  0  0
   -3.0000   -5.1962    0.0000 C   0  0  0  0  0  0  0  0  0  0  0  0
   -3.7500   -6.4952    0.0000 C   0  0  0  0  0  0  0  0  0  0  0  0
   -5.2500   -6.4952    0.0000 C   0  0  0  0  0  0  0  0  0  0  0  0
   -6.0000   -5.1962    0.0000 C   0  0  0  0  0  0  0  0  0  0  0  0
   -7.5000   -5.1962    0.0000 C   0  0  0  0  0  0  0  0  0  0  0  0
   -8.2500   -6.4952    0.0000 C   0  0  0  0  0  0  0  0  0  0  0  0
   -7.5000   -7.7942    0.0000 C   0  0  0  0  0  0  0  0  0  0  0  0
   -6.0000   -7.7942    0.0000 C   0  0  0  0  0  0  0  0  0  0  0  0
   -3.7500   -3.8971    0.0000 C   0  0  0  0  0  0  0  0  0  0  0  0
   -3.0000   -2.5981    0.0000 O   0  0  0  0  0  0  0  0  0  0  0  0
   -5.2500   -3.8971    0.0000 N   0  0  0  0  0  0  0  0  0  0  0  0
   -6.0000   -2.5981    0.0000 C   0  0  0  0  0  0  0  0  0  0  0  0
   -7.5000   -2.5981    0.0000 C   0  0  0  0  0  0  0  0  0  0  0  0
   -8.2500   -1.2990    0.0000 C   0  0  0  0  0  0  0  0  0  0  0  0
   -7.5000    0.0000    0.0000 C   0  0  0  0  0  0  0  0  0  0  0  0
   -8.2500    1.2990    0.0000 C   0  0  0  0  0  0  0  0  0  0  0  0
   -9.7500    1.2990    0.0000 C   0  0  0  0  0  0  0  0  0  0  0  0
  -10.5000    0.0000    0.0000 C   0  0  0  0  0  0  0  0  0  0  0  0
   -9.7500   -1.2990    0.0000 C   0  0  0  0  0  0  0  0  0  0  0  0
   -5.2500   -1.2990    0.0000 C   0  0  0  0  0  0  0  0  0  0  0  0
   -3.7500   -1.2990    0.0000 O   0  0  0  0  0  0  0  0  0  0  0  0
   -6.0000    0.0000    0.0000 N   0  0  0  0  0  0  0  0  0  0  0  0
   -5.2500    1.2990    0.0000 C   0  0  0  0  0  0  0  0  0  0  0  0
   -6.0000    2.5981    0.0000 C   0  0  0  0  0  0  0  0  0  0  0  0
   -5.2500    3.8971    0.0000 C   0  0  0  0  0  0  0  0  0  0  0  0
   -3.7500    3.8971    0.0000 C   0  0  0  0  0  0  0  0  0  0  0  0
   -3.0000    5.1962    0.0000 C   0  0  0  0  0  0  0  0  0  0  0  0
   -3.7500    6.4952    0.0000 C   0  0  0  0  0  0  0  0  0  0  0  0
   -5.2500    6.4952    0.0000 C   0  0  0  0  0  0  0  0  0  0  0  0
   -6.0000    5.1962    0.0000 C   0  0  0  0  0  0  0  0  0  0  0  0
   -3.7500    1.2990    0.0000 C   0  0  0  0  0  0  0  0  0  0  0  0
   -3.0000    0.0000    0.0000 O   0  0  0  0  0  0  0  0  0  0  0  0
   -3.0000    2.5981    0.0000 O   0  0  0  0  0  0  0  0  0  0  0  0
  1  2  1  0
  2  3  2  0
  2  4  1  0
  4  5  1  0
  5  6  1  0
  6  7  2  0
  7  8  1  0
  8  9  2  0
  9 10  1  0
 10 11  2  0
  4 12  1  0
 12 13  1  0
 13 14  2  0
 13 15  1  0
 15 16  1  0
 16 17  1  0
 17 18  2  0
 18 19  1  0
 19 20  2  0
 20 21  1  0
 21 22  2  0
 15 23  1  0
 23 24  2  0
 23 25  1  0
 25 26  1  0
 26 27  1  0
 27 28  1  0
 28 29  2  0
 29 30  1  0
 30 31  2  0
 31 32  1  0
 32 33  2  0
 26 34  1  0
 34 35  2  0
 34 36  1  0
 36 37  1  0
 37 38  1  0
 38 39  1  0
 39 40  2  0
 40 41  1  0
 41 42  2  0
 42 43  1  0
 43 44  2  0
 37 45  1  0
 45 46  2  0
 45 47  1  0
 11  6  1  0
 22 17  1  0
 33 28  1  0
 44 39  1  0
M  END
>  <Title>  (22) 
idAAHJgen6

$$$$

     RDKit          2D

 66 73  0  0  0  0  0  0  0  0999 V2000
    3.7193    5.0242    0.0000 O   0  0  0  0  0  0  0  0  0  0  0  0
    2.4612    5.8412    0.0000 C   0  0  0  0  0  0  0  0  0  0  0  0
    1.0517    5.3281    0.0000 N   0  0  0  0  0  0  0  0  0  0  0  0
    0.7912    3.8509    0.0000 C   0  0  0  0  0  0  0  0  0  0  0  0
    1.9403    2.8868    0.0000 C   0  0  0  0  0  0  0  0  0  0  0  0
    1.6798    1.4095    0.0000 C   0  0  0  0  0  0  0  0  0  0  0  0
    2.1929    0.0000    0.0000 C   0  0  0  0  0  0  0  0  0  0  0  0
    1.6798   -1.4095    0.0000 C   0  0  0  0  0  0  0  0  0  0  0  0
    0.3808   -2.1595    0.0000 C   0  0  0  0  0  0  0  0  0  0  0  0
   -1.0964   -1.8991    0.0000 O   0  0  0  0  0  0  0  0  0  0  0  0
   -2.0606   -0.7500    0.0000 C   0  0  0  0  0  0  0  0  0  0  0  0
   -2.0606    0.7500    0.0000 C   0  0  0  0  0  0  0  0  0  0  0  0
   -1.0964    1.8991    0.0000 C   0  0  0  0  0  0  0  0  0  0  0  0
   -0.6183    3.3379    0.0000 C   0  0  0  0  0  0  0  0  0  0  0  0
    0.3808    2.1595    0.0000 N   0  0  0  0  0  0  0  0  0  0  0  0
    0.6413    3.6368    0.0000 C   0  0  0  0  0  0  0  0  0  0  0  0
    2.0508    4.1498    0.0000 C   0  0  0  0  0  0  0  0  0  0  0  0
    2.3113    5.6270    0.0000 C   0  0  0  0  0  0  0  0  0  0  0  0
    3.7208    6.1400    0.0000 C   0  0  0  0  0  0  0  0  0  0  0  0
    3.9813    7.6172    0.0000 C   0  0  0  0  0  0  0  0  0  0  0  0
    2.8322    8.5814    0.0000 C   0  0  0  0  0  0  0  0  0  0  0  0
    1.4227    8.0684    0.0000 C   0  0  0  0  0  0  0  0  0  0  0  0
    1.1622    6.5912    0.0000 C   0  0  0  0  0  0  0  0  0  0  0  0
    2.7217    7.3184    0.0000 C   0  0  0  0  0  0  0  0  0  0  0  0
    4.1313    7.8314    0.0000 C   0  0  0  0  0  0  0  0  0  0  0  0
    4.3917    9.3086    0.0000 C   0  0  0  0  0  0  0  0  0  0  0  0
    3.2427   10.2728    0.0000 C   0  0  0  0  0  0  0  0  0  0  0  0
    1.8331    9.7598    0.0000 C   0  0  0  0  0  0  0  0  0  0  0  0
    1.5726    8.2826    0.0000 C   0  0  0  0  0  0  0  0  0  0  0  0
    2.9822    8.7956    0.0000 C   0  0  0  0  0  0  0  0  0  0  0  0
    2.7217    7.3184    0.0000 C   0  0  0  0  0  0  0  0  0  0  0  0
    4.0699    6.6609    0.0000 O   0  0  0  0  0  0  0  0  0  0  0  0
    1.3122    6.8054    0.0000 N   0  0  0  0  0  0  0  0  0  0  0  0
    1.0517    5.3281    0.0000 C   0  0  0  0  0  0  0  0  0  0  0  0
   -0.3578    4.8151    0.0000 C   0  0  0  0  0  0  0  0  0  0  0  0
   -0.6183    3.3379    0.0000 C   0  0  0  0  0  0  0  0  0  0  0  0
   -2.0278    2.8249    0.0000 C   0  0  0  0  0  0  0  0  0  0  0  0
   -2.2883    1.3477    0.0000 C   0  0  0  0  0  0  0  0  0  0  0  0
   -1.1393    0.3835    0.0000 C   0  0  0  0  0  0  0  0  0  0  0  0
    0.2703    0.8965    0.0000 C   0  0  0  0  0  0  0  0  0  0  0  0
    0.5308    2.3737    0.0000 C   0  0  0  0  0  0  0  0  0  0  0  0
    2.2008    4.3640    0.0000 C   0  0  0  0  0  0  0  0  0  0  0  0
    3.6623    4.7013    0.0000 O   0  0  0  0  0  0  0  0  0  0  0  0
    1.9403    2.8868    0.0000 N   0  0  0  0  0  0  0  0  0  0  0  0
    3.0894    1.9226    0.0000 C   0  0  0  0  0  0  0  0  0  0  0  0
    2.8289    0.4454    0.0000 C   0  0  0  0  0  0  0  0  0  0  0  0
    3.9780   -0.5188    0.0000 C   0  0  0  0  0  0  0  0  0  0  0  0
    3.7175   -1.9960    0.0000 C   0  0  0  0  0  0  0  0  0  0  0  0
    4.8666   -2.9602    0.0000 C   0  0  0  0  0  0  0  0  0  0  0  0
    6.2761   -2.4472    0.0000 C   0  0  0  0  0  0  0  0  0  0  0  0
    6.5366   -0.9700    0.0000 C   0  0  0  0  0  0  0  0  0  0  0  0
    5.3875   -0.0058    0.0000 C   0  0  0  0  0  0  0  0  0  0  0  0
    4.4989    2.4356    0.0000 C   0  0  0  0  0  0  0  0  0  0  0  0
    4.7594    3.9128    0.0000 O   0  0  0  0  0  0  0  0  0  0  0  0
    5.6480    1.4714    0.0000 N   0  0  0  0  0  0  0  0  0  0  0  0
    7.0575    1.9844    0.0000 C   0  0  0  0  0  0  0  0  0  0  0  0
    8.2066    1.0203    0.0000 C   0  0  0  0  0  0  0  0  0  0  0  0
    9.6161    1.5333    0.0000 C   0  0  0  0  0  0  0  0  0  0  0  0
   10.7652    0.5691    0.0000 C   0  0  0  0  0  0  0  0  0  0  0  0
   12.1747    1.0821    0.0000 C   0  0  0  0  0  0  0  0  0  0  0  0
   12.4352    2.5594    0.0000 C   0  0  0  0  0  0  0  0  0  0  0  0
   11.2861    3.5235    0.0000 C   0  0  0  0  0  0  0  0  0  0  0  0
    9.8766    3.0105    0.0000 C   0  0  0  0  0  0  0  0  0  0  0  0
    7.3180    3.4617    0.0000 C   0  0  0  0  0  0  0  0  0  0  0  0
    6.1689    4.4258    0.0000 O   0  0  0  0  0  0  0  0  0  0  0  0
    8.7275    3.9747    0.0000 O   0  0  0  0  0  0  0  0  0  0  0  0
  1  2  2  0
  2  3  1  0
  3  4  1  0
  4  5  1  0
  5  6  1  0
  6  7  1  0
  7  8  1  0
  8  9  1  0
  9 10  1  0
 10 11  1  0
 11 12  1  0
 12 13  1  0
 13 14  1  0
 13 15  1  0
 15 16  1  0
 16 17  1  0
 17 18  1  0
 18 19  2  0
 19 20  1  0
 20 21  2  0
 21 22  1  0
 22 23  2  0
  2 24  1  0
 24 25  1  0
 25 26  1  0
 26 27  1  0
 27 28  1  0
 28 29  1  0
 28 30  1  0
 30 31  1  0
 31 32  2  0
 31 33  1  0
 33 34  1  0
 34 35  1  0
 35 36  1  0
 36 37  2  0
 37 38  1  0
 38 39  2  0
 39 40  1  0
 40 41  2  0
 34 42  1  0
 42 43  2  0
 42 44  1  0
 44 45  1  0
 45 46  1  0
 46 47  1  0
 47 48  2  0
 48 49  1  0
 49 50  2  0
 50 51  1  0
 51 52  2  0
 45 53  1  0
 53 54  2  0
 53 55  1  0
 55 56  1  0
 56 57  1  0
 57 58  1  0
 58 59  2  0
 59 60  1  0
 60 61  2  0
 61 62  1  0
 62 63  2  0
 56 64  1  0
 64 65  2  0
 64 66  1  0
 14  4  1  0
 23 18  1  0
 29 24  1  0
 41 36  1  0
 52 47  1  0
 63 58  1  0
 15  6  1  0
 30 26  1  0
M  END
>  <Title>  (23) 
idAAHKgen6

$$$$

     RDKit          2D

 73 79  0  0  0  0  0  0  0  0999 V2000
    3.4635   -1.4266    0.0000 C   0  0  0  0  0  0  0  0  0  0  0  0
    1.9635   -1.4266    0.0000 C   0  0  0  0  0  0  0  0  0  0  0  0
    2.4271   -2.8532    0.0000 C   0  0  0  0  0  0  0  0  0  0  0  0
    3.8943   -3.1650    0.0000 C   0  0  0  0  0  0  0  0  0  0  0  0
    4.3578   -4.5916    0.0000 C   0  0  0  0  0  0  0  0  0  0  0  0
    5.8250   -4.9035    0.0000 C   0  0  0  0  0  0  0  0  0  0  0  0
    6.8287   -3.7888    0.0000 O   0  0  0  0  0  0  0  0  0  0  0  0
    6.2885   -6.3301    0.0000 C   0  0  0  0  0  0  0  0  0  0  0  0
    4.8213   -6.6419    0.0000 O   0  0  0  0  0  0  0  0  0  0  0  0
    6.4453   -7.8219    0.0000 C   0  0  0  0  0  0  0  0  0  0  0  0
    7.9126   -8.1337    0.0000 C   0  0  0  0  0  0  0  0  0  0  0  0
    8.6626   -6.8347    0.0000 C   0  0  0  0  0  0  0  0  0  0  0  0
    7.6589   -5.7200    0.0000 C   0  0  0  0  0  0  0  0  0  0  0  0
    4.8980   -2.0503    0.0000 C   0  0  0  0  0  0  0  0  0  0  0  0
    4.4344   -0.6237    0.0000 O   0  0  0  0  0  0  0  0  0  0  0  0
    6.3652   -2.3622    0.0000 C   0  0  0  0  0  0  0  0  0  0  0  0
    7.3689   -1.2475    0.0000 O   0  0  0  0  0  0  0  0  0  0  0  0
    2.4271    0.0000    0.0000 C   0  0  0  0  0  0  0  0  0  0  0  0
    1.9635    1.4266    0.0000 C   0  0  0  0  0  0  0  0  0  0  0  0
    0.7500    2.3083    0.0000 C   0  0  0  0  0  0  0  0  0  0  0  0
   -0.7500    2.3083    0.0000 C   0  0  0  0  0  0  0  0  0  0  0  0
   -1.9635    1.4266    0.0000 C   0  0  0  0  0  0  0  0  0  0  0  0
   -2.4271    0.0000    0.0000 C   0  0  0  0  0  0  0  0  0  0  0  0
   -1.9635   -1.4266    0.0000 C   0  0  0  0  0  0  0  0  0  0  0  0
   -0.7500   -2.3083    0.0000 C   0  0  0  0  0  0  0  0  0  0  0  0
   -1.2194   -3.0594    0.0000 O   0  0  0  0  0  0  0  0  0  0  0  0
    0.7500   -2.3083    0.0000 C   0  0  0  0  0  0  0  0  0  0  0  0
    0.2865   -3.7348    0.0000 C   0  0  0  0  0  0  0  0  0  0  0  0
    0.9906   -5.0593    0.0000 O   0  0  0  0  0  0  0  0  0  0  0  0
   -1.1807   -4.0467    0.0000 N   0  0  0  0  0  0  0  0  0  0  0  0
   -1.6443   -5.4733    0.0000 C   0  0  0  0  0  0  0  0  0  0  0  0
   -3.1115   -5.7852    0.0000 C   0  0  0  0  0  0  0  0  0  0  0  0
   -3.5750   -7.2118    0.0000 C   0  0  0  0  0  0  0  0  0  0  0  0
   -5.0422   -7.5236    0.0000 C   0  0  0  0  0  0  0  0  0  0  0  0
   -5.5058   -8.9502    0.0000 C   0  0  0  0  0  0  0  0  0  0  0  0
   -4.5021  -10.0649    0.0000 C   0  0  0  0  0  0  0  0  0  0  0  0
   -3.0348   -9.7531    0.0000 C   0  0  0  0  0  0  0  0  0  0  0  0
   -2.5713   -8.3265    0.0000 C   0  0  0  0  0  0  0  0  0  0  0  0
   -0.6406   -6.5880    0.0000 C   0  0  0  0  0  0  0  0  0  0  0  0
    0.8266   -6.2761    0.0000 O   0  0  0  0  0  0  0  0  0  0  0  0
   -1.1041   -8.0146    0.0000 O   0  0  0  0  0  0  0  0  0  0  0  0
    1.9635   -3.1899    0.0000 C   0  0  0  0  0  0  0  0  0  0  0  0
    1.8067   -4.6817    0.0000 C   0  0  0  0  0  0  0  0  0  0  0  0
    3.0203   -5.5634    0.0000 C   0  0  0  0  0  0  0  0  0  0  0  0
    4.3906   -4.9533    0.0000 C   0  0  0  0  0  0  0  0  0  0  0  0
    4.5474   -3.4615    0.0000 C   0  0  0  0  0  0  0  0  0  0  0  0
    3.3338   -2.5798    0.0000 C   0  0  0  0  0  0  0  0  0  0  0  0
    3.1771   -4.0716    0.0000 C   0  0  0  0  0  0  0  0  0  0  0  0
    1.9635   -3.1899    0.0000 C   0  0  0  0  0  0  0  0  0  0  0  0
    2.4766   -1.7804    0.0000 O   0  0  0  0  0  0  0  0  0  0  0  0
    0.5932   -3.8000    0.0000 N   0  0  0  0  0  0  0  0  0  0  0  0
   -0.6203   -2.9184    0.0000 C   0  0  0  0  0  0  0  0  0  0  0  0
   -1.9906   -3.5285    0.0000 C   0  0  0  0  0  0  0  0  0  0  0  0
   -3.2042   -2.6468    0.0000 C   0  0  0  0  0  0  0  0  0  0  0  0
   -3.0474   -1.1550    0.0000 C   0  0  0  0  0  0  0  0  0  0  0  0
   -4.2609   -0.2733    0.0000 C   0  0  0  0  0  0  0  0  0  0  0  0
   -5.6312   -0.8834    0.0000 C   0  0  0  0  0  0  0  0  0  0  0  0
   -5.7880   -2.3752    0.0000 C   0  0  0  0  0  0  0  0  0  0  0  0
   -4.5745   -3.2569    0.0000 C   0  0  0  0  0  0  0  0  0  0  0  0
   -0.4635   -1.4266    0.0000 C   0  0  0  0  0  0  0  0  0  0  0  0
    0.9068   -0.8165    0.0000 O   0  0  0  0  0  0  0  0  0  0  0  0
   -1.6771   -0.5449    0.0000 N   0  0  0  0  0  0  0  0  0  0  0  0
   -1.5203    0.9469    0.0000 C   0  0  0  0  0  0  0  0  0  0  0  0
   -2.7338    1.8286    0.0000 C   0  0  0  0  0  0  0  0  0  0  0  0
   -2.5770    3.3203    0.0000 C   0  0  0  0  0  0  0  0  0  0  0  0
   -1.2067    3.9304    0.0000 C   0  0  0  0  0  0  0  0  0  0  0  0
   -1.0499    5.4222    0.0000 C   0  0  0  0  0  0  0  0  0  0  0  0
   -2.2634    6.3039    0.0000 C   0  0  0  0  0  0  0  0  0  0  0  0
   -3.6337    5.6938    0.0000 C   0  0  0  0  0  0  0  0  0  0  0  0
   -3.7905    4.2020    0.0000 C   0  0  0  0  0  0  0  0  0  0  0  0
   -0.1499    1.5570    0.0000 C   0  0  0  0  0  0  0  0  0  0  0  0
    1.0636    0.6753    0.0000 O   0  0  0  0  0  0  0  0  0  0  0  0
    0.0069    3.0488    0.0000 O   0  0  0  0  0  0  0  0  0  0  0  0
  1  2  1  0
  2  3  1  0
  3  4  1  0
  4  5  1  0
  5  6  1  0
  6  7  1  0
  6  8  1  0
  8  9  1  0
  8 10  1  0
 10 11  1  0
 11 12  1  0
 12 13  1  0
  4 14  1  0
 14 15  1  0
 14 16  1  0
 16 17  1  0
  2 18  1  0
 18 19  1  0
 19 20  1  0
 20 21  1  0
 21 22  1  0
 22 23  1  0
 23 24  1  0
 24 25  1  0
 25 26  1  0
 25 27  1  0
 27 28  1  0
 28 29  2  0
 28 30  1  0
 30 31  1  0
 31 32  1  0
 32 33  1  0
 33 34  2  0
 34 35  1  0
 35 36  2  0
 36 37  1  0
 37 38  2  0
 31 39  1  0
 39 40  2  0
 39 41  1  0
 27 42  1  0
 42 43  1  0
 43 44  1  0
 44 45  1  0
 45 46  1  0
 46 47  1  0
 46 48  1  0
 48 49  1  0
 49 50  2  0
 49 51  1  0
 51 52  1  0
 52 53  1  0
 53 54  1  0
 54 55  2  0
 55 56  1  0
 56 57  2  0
 57 58  1  0
 58 59  2  0
 52 60  1  0
 60 61  2  0
 60 62  1  0
 62 63  1  0
 63 64  1  0
 64 65  1  0
 65 66  2  0
 66 67  1  0
 67 68  2  0
 68 69  1  0
 69 70  2  0
 63 71  1  0
 71 72  2  0
 71 73  1  0
 27  2  1  0
 38 33  1  0
 47 42  1  0
 59 54  1  0
 70 65  1  0
 13  8  1  0
 48 44  1  0
M  END
>  <Title>  (24) 
idAAHLgen6

$$$$

     RDKit          2D

 21 21  0  0  0  0  0  0  0  0999 V2000
    3.9271   -1.5000    0.0000 C   0  0  0  0  0  0  0  0  0  0  0  0
    3.9271    0.0000    0.0000 C   0  0  0  0  0  0  0  0  0  0  0  0
    3.9271    1.5000    0.0000 C   0  0  0  0  0  0  0  0  0  0  0  0
    5.4271    0.0000    0.0000 C   0  0  0  0  0  0  0  0  0  0  0  0
    2.4271    0.0000    0.0000 C   0  0  0  0  0  0  0  0  0  0  0  0
    1.9635   -1.4266    0.0000 C   0  0  0  0  0  0  0  0  0  0  0  0
    0.7500   -2.3083    0.0000 C   0  0  0  0  0  0  0  0  0  0  0  0
   -0.7500   -2.3083    0.0000 C   0  0  0  0  0  0  0  0  0  0  0  0
   -1.2135   -3.7348    0.0000 C   0  0  0  0  0  0  0  0  0  0  0  0
    0.2131   -4.1984    0.0000 C   0  0  0  0  0  0  0  0  0  0  0  0
   -2.5387   -3.4773    0.0000 C   0  0  0  0  0  0  0  0  0  0  0  0
   -1.6771   -5.1614    0.0000 C   0  0  0  0  0  0  0  0  0  0  0  0
   -1.9635   -1.4266    0.0000 C   0  0  0  0  0  0  0  0  0  0  0  0
   -2.5341   -2.6501    0.0000 C   0  0  0  0  0  0  0  0  0  0  0  0
   -3.4635   -1.4266    0.0000 C   0  0  0  0  0  0  0  0  0  0  0  0
   -2.4271    0.0000    0.0000 C   0  0  0  0  0  0  0  0  0  0  0  0
   -1.9635    1.4266    0.0000 C   0  0  0  0  0  0  0  0  0  0  0  0
   -0.7500    2.3083    0.0000 C   0  0  0  0  0  0  0  0  0  0  0  0
    0.7500    2.3083    0.0000 C   0  0  0  0  0  0  0  0  0  0  0  0
    1.2135    3.7348    0.0000 O   0  0  0  0  0  0  0  0  0  0  0  0
    1.9635    1.4266    0.0000 C   0  0  0  0  0  0  0  0  0  0  0  0
  1  2  1  0
  2  3  1  0
  2  4  1  0
  2  5  1  0
  5  6  1  0
  6  7  1  0
  7  8  1  0
  8  9  1  0
  9 10  1  0
  9 11  1  0
  9 12  1  0
  8 13  1  0
 13 14  1  0
 13 15  1  0
 13 16  1  0
 16 17  1  0
 17 18  1  0
 18 19  1  0
 19 20  1  0
 19 21  1  0
 21  5  1  0
M  END
>  <Title>  (25) 
idAAHMgen6

$$$$

     RDKit          2D

 25 29  0  0  0  0  0  0  0  0999 V2000
   -0.2010   -5.9462    0.0000 C   0  0  0  0  0  0  0  0  0  0  0  0
   -1.5000   -5.1962    0.0000 C   0  0  0  0  0  0  0  0  0  0  0  0
   -2.7990   -4.4462    0.0000 C   0  0  0  0  0  0  0  0  0  0  0  0
   -2.2500   -6.4952    0.0000 C   0  0  0  0  0  0  0  0  0  0  0  0
   -0.7500   -3.8971    0.0000 N   0  0  0  0  0  0  0  0  0  0  0  0
    0.7500   -3.8971    0.0000 C   0  0  0  0  0  0  0  0  0  0  0  0
    1.5000   -2.5981    0.0000 C   0  0  0  0  0  0  0  0  0  0  0  0
    0.7500   -1.2990    0.0000 C   0  0  0  0  0  0  0  0  0  0  0  0
    1.5000    0.0000    0.0000 C   0  0  0  0  0  0  0  0  0  0  0  0
    0.7500    1.2990    0.0000 C   0  0  0  0  0  0  0  0  0  0  0  0
   -0.7500    1.2990    0.0000 C   0  0  0  0  0  0  0  0  0  0  0  0
   -1.5000    0.0000    0.0000 C   0  0  0  0  0  0  0  0  0  0  0  0
   -0.7500   -1.2990    0.0000 C   0  0  0  0  0  0  0  0  0  0  0  0
   -1.5000   -2.5981    0.0000 C   0  0  0  0  0  0  0  0  0  0  0  0
   -3.0000   -2.5981    0.0000 C   0  0  0  0  0  0  0  0  0  0  0  0
   -3.7500   -3.8971    0.0000 C   0  0  0  0  0  0  0  0  0  0  0  0
   -5.2500   -3.8971    0.0000 C   0  0  0  0  0  0  0  0  0  0  0  0
   -6.0000   -5.1962    0.0000 C   0  0  0  0  0  0  0  0  0  0  0  0
   -5.2500   -6.4952    0.0000 C   0  0  0  0  0  0  0  0  0  0  0  0
   -3.7500   -6.4952    0.0000 C   0  0  0  0  0  0  0  0  0  0  0  0
   -4.7010   -3.3481    0.0000 C   0  0  0  0  0  0  0  0  0  0  0  0
   -6.0000   -2.5981    0.0000 C   0  0  0  0  0  0  0  0  0  0  0  0
   -6.7500   -3.8971    0.0000 C   0  0  0  0  0  0  0  0  0  0  0  0
   -4.5000   -2.5981    0.0000 C   0  0  0  0  0  0  0  0  0  0  0  0
   -3.0000   -5.1962    0.0000 C   0  0  0  0  0  0  0  0  0  0  0  0
  1  2  1  0
  2  3  1  0
  2  4  1  0
  2  5  1  0
  5  6  1  0
  6  7  1  0
  7  8  1  0
  8  9  2  0
  9 10  1  0
 10 11  2  0
 11 12  1  0
 12 13  2  0
 13 14  1  0
 14 15  1  0
 15 16  1  0
 16 17  1  0
 17 18  1  0
 18 19  1  0
 19 20  1  0
 20 21  1  0
 21 22  1  0
 22 23  1  0
 22 24  1  0
 20 25  1  0
 14  5  1  0
 24 16  1  0
 13  8  1  0
 25 16  1  0
 23 18  1  0
M  END
>  <Title>  (26) 
idAAHNgen6

$$$$

     RDKit          2D

 50 53  0  0  0  0  0  0  0  0999 V2000
   -5.1560   -7.0277    0.0000 C   0  0  0  0  0  0  0  0  0  0  0  0
   -6.0261   -5.8058    0.0000 C   0  0  0  0  0  0  0  0  0  0  0  0
   -6.8962   -4.5840    0.0000 C   0  0  0  0  0  0  0  0  0  0  0  0
   -7.2480   -6.6759    0.0000 C   0  0  0  0  0  0  0  0  0  0  0  0
   -4.8043   -4.9358    0.0000 C   0  0  0  0  0  0  0  0  0  0  0  0
   -5.2949   -3.5183    0.0000 C   0  0  0  0  0  0  0  0  0  0  0  0
   -4.9412   -2.0605    0.0000 C   0  0  0  0  0  0  0  0  0  0  0  0
   -6.2403   -1.3105    0.0000 O   0  0  0  0  0  0  0  0  0  0  0  0
   -3.8556   -1.0254    0.0000 C   0  0  0  0  0  0  0  0  0  0  0  0
   -2.3827   -0.7415    0.0000 C   0  0  0  0  0  0  0  0  0  0  0  0
   -2.2401    0.7517    0.0000 O   0  0  0  0  0  0  0  0  0  0  0  0
   -0.9902   -1.2990    0.0000 C   0  0  0  0  0  0  0  0  0  0  0  0
   -0.1201   -2.5209    0.0000 C   0  0  0  0  0  0  0  0  0  0  0  0
    1.3192   -2.9435    0.0000 C   0  0  0  0  0  0  0  0  0  0  0  0
    1.6728   -4.4012    0.0000 C   0  0  0  0  0  0  0  0  0  0  0  0
    0.3957   -5.1880    0.0000 C   0  0  0  0  0  0  0  0  0  0  0  0
   -0.1750   -6.5752    0.0000 C   0  0  0  0  0  0  0  0  0  0  0  0
    0.1786   -8.0329    0.0000 C   0  0  0  0  0  0  0  0  0  0  0  0
    1.3215   -9.0044    0.0000 C   0  0  0  0  0  0  0  0  0  0  0  0
    2.8172   -9.1185    0.0000 C   0  0  0  0  0  0  0  0  0  0  0  0
    4.0943   -8.3317    0.0000 C   0  0  0  0  0  0  0  0  0  0  0  0
    4.6650   -6.9445    0.0000 C   0  0  0  0  0  0  0  0  0  0  0  0
    4.3114   -5.4868    0.0000 C   0  0  0  0  0  0  0  0  0  0  0  0
    3.1684   -4.5153    0.0000 C   0  0  0  0  0  0  0  0  0  0  0  0
    2.8148   -3.0576    0.0000 C   0  0  0  0  0  0  0  0  0  0  0  0
    4.4455   -3.7286    0.0000 C   0  0  0  0  0  0  0  0  0  0  0  0
    5.7655   -4.4412    0.0000 C   0  0  0  0  0  0  0  0  0  0  0  0
    5.8083   -5.9405    0.0000 C   0  0  0  0  0  0  0  0  0  0  0  0
    7.1282   -6.6531    0.0000 C   0  0  0  0  0  0  0  0  0  0  0  0
    8.4053   -5.8664    0.0000 O   0  0  0  0  0  0  0  0  0  0  0  0
    7.1711   -8.1525    0.0000 C   0  0  0  0  0  0  0  0  0  0  0  0
    5.6754   -8.0384    0.0000 O   0  0  0  0  0  0  0  0  0  0  0  0
    6.9012   -9.6281    0.0000 C   0  0  0  0  0  0  0  0  0  0  0  0
    8.2211  -10.3407    0.0000 C   0  0  0  0  0  0  0  0  0  0  0  0
    9.3067   -9.3055    0.0000 C   0  0  0  0  0  0  0  0  0  0  0  0
    8.6578   -7.9532    0.0000 C   0  0  0  0  0  0  0  0  0  0  0  0
    7.0426   -3.6544    0.0000 C   0  0  0  0  0  0  0  0  0  0  0  0
    6.9997   -2.1550    0.0000 O   0  0  0  0  0  0  0  0  0  0  0  0
    8.3625   -4.3670    0.0000 C   0  0  0  0  0  0  0  0  0  0  0  0
    9.6396   -3.5802    0.0000 O   0  0  0  0  0  0  0  0  0  0  0  0
    0.7500   -1.2990    0.0000 C   0  0  0  0  0  0  0  0  0  0  0  0
    1.9719   -2.1691    0.0000 C   0  0  0  0  0  0  0  0  0  0  0  0
   -0.4719   -0.4290    0.0000 C   0  0  0  0  0  0  0  0  0  0  0  0
    1.6201   -0.0772    0.0000 C   0  0  0  0  0  0  0  0  0  0  0  0
   -0.0487   -4.0192    0.0000 C   0  0  0  0  0  0  0  0  0  0  0  0
   -0.1201   -5.5175    0.0000 C   0  0  0  0  0  0  0  0  0  0  0  0
   -1.4533   -6.2048    0.0000 C   0  0  0  0  0  0  0  0  0  0  0  0
   -2.7152   -5.3939    0.0000 C   0  0  0  0  0  0  0  0  0  0  0  0
   -2.6438   -3.8956    0.0000 C   0  0  0  0  0  0  0  0  0  0  0  0
   -1.3106   -3.2082    0.0000 C   0  0  0  0  0  0  0  0  0  0  0  0
  1  2  1  0
  2  3  1  0
  2  4  1  0
  2  5  1  0
  5  6  1  0
  6  7  1  0
  7  8  1  0
  7  9  1  0
  9 10  1  0
 10 11  1  0
 10 12  1  0
 12 13  1  0
 13 14  1  0
 14 15  1  0
 15 16  1  0
 16 17  1  0
 17 18  1  0
 18 19  1  0
 19 20  1  0
 20 21  1  0
 21 22  1  0
 22 23  1  0
 23 24  1  0
 24 25  1  0
 24 26  1  0
 26 27  1  0
 27 28  1  0
 28 29  1  0
 29 30  1  0
 29 31  1  0
 31 32  1  0
 31 33  1  0
 33 34  1  0
 34 35  1  0
 35 36  1  0
 27 37  1  0
 37 38  1  0
 37 39  1  0
 39 40  1  0
 13 41  1  0
 41 42  1  0
 41 43  1  0
 41 44  1  0
 13 45  1  0
 45 46  1  0
 46 47  1  0
 47 48  1  0
 48 49  1  0
 49 50  1  0
 48  5  1  0
 24 15  1  0
 36 31  1  0
 50 45  1  0
M  END
>  <Title>  (27) 
idAAHOgen6

$$$$

     RDKit          2D

 24 25  0  0  0  0  0  0  0  0999 V2000
    7.4221   -4.8960    0.0000 C   0  0  0  0  0  0  0  0  0  0  0  0
    6.9091   -6.3056    0.0000 C   0  0  0  0  0  0  0  0  0  0  0  0
    8.3186   -6.8186    0.0000 C   0  0  0  0  0  0  0  0  0  0  0  0
    6.3961   -7.7151    0.0000 C   0  0  0  0  0  0  0  0  0  0  0  0
    4.9865   -7.2021    0.0000 C   0  0  0  0  0  0  0  0  0  0  0  0
    5.4996   -5.7926    0.0000 C   0  0  0  0  0  0  0  0  0  0  0  0
    6.0126   -4.3830    0.0000 C   0  0  0  0  0  0  0  0  0  0  0  0
    4.0900   -5.2795    0.0000 C   0  0  0  0  0  0  0  0  0  0  0  0
    3.8296   -3.8023    0.0000 C   0  0  0  0  0  0  0  0  0  0  0  0
    2.4200   -3.2893    0.0000 C   0  0  0  0  0  0  0  0  0  0  0  0
    2.1595   -1.8121    0.0000 C   0  0  0  0  0  0  0  0  0  0  0  0
    3.3086   -0.8479    0.0000 O   0  0  0  0  0  0  0  0  0  0  0  0
    0.7500   -1.2990    0.0000 C   0  0  0  0  0  0  0  0  0  0  0  0
    0.4895   -2.7762    0.0000 O   0  0  0  0  0  0  0  0  0  0  0  0
    1.5000    0.0000    0.0000 C   0  0  0  0  0  0  0  0  0  0  0  0
    0.7500    1.2990    0.0000 C   0  0  0  0  0  0  0  0  0  0  0  0
   -0.7500    1.2990    0.0000 C   0  0  0  0  0  0  0  0  0  0  0  0
   -1.5000    0.0000    0.0000 C   0  0  0  0  0  0  0  0  0  0  0  0
   -3.0000    0.0000    0.0000 O   0  0  0  0  0  0  0  0  0  0  0  0
   -0.7500   -1.2990    0.0000 C   0  0  0  0  0  0  0  0  0  0  0  0
    4.9786   -2.8381    0.0000 C   0  0  0  0  0  0  0  0  0  0  0  0
    4.7181   -1.3609    0.0000 O   0  0  0  0  0  0  0  0  0  0  0  0
    6.3882   -3.3512    0.0000 C   0  0  0  0  0  0  0  0  0  0  0  0
    7.5372   -2.3870    0.0000 O   0  0  0  0  0  0  0  0  0  0  0  0
  1  2  1  0
  2  3  1  0
  2  4  1  0
  4  5  1  0
  5  6  1  0
  6  7  1  0
  6  8  1  0
  8  9  1  0
  9 10  1  0
 10 11  1  0
 11 12  1  0
 11 13  1  0
 13 14  1  0
 13 15  1  0
 15 16  1  0
 16 17  1  0
 17 18  1  0
 18 19  1  0
 18 20  1  0
  9 21  1  0
 21 22  1  0
 21 23  1  0
 23 24  1  0
  6  2  1  0
 20 13  1  0
M  END
>  <Title>  (28) 
idAAHPgen6

$$$$

     RDKit          2D

 77 83  0  0  0  0  0  0  0  0999 V2000
    4.1450    2.5163    0.0000 C   0  0  0  0  0  0  0  0  0  0  0  0
    3.2954    1.4672    0.0000 C   0  0  0  0  0  0  0  0  0  0  0  0
    4.7726    1.2067    0.0000 C   0  0  0  0  0  0  0  0  0  0  0  0
    5.7368    2.3558    0.0000 C   0  0  0  0  0  0  0  0  0  0  0  0
    7.2140    2.0953    0.0000 C   0  0  0  0  0  0  0  0  0  0  0  0
    8.1782    3.2444    0.0000 C   0  0  0  0  0  0  0  0  0  0  0  0
    7.3394    4.4879    0.0000 O   0  0  0  0  0  0  0  0  0  0  0  0
    9.6554    2.9839    0.0000 C   0  0  0  0  0  0  0  0  0  0  0  0
   10.1190    4.4105    0.0000 O   0  0  0  0  0  0  0  0  0  0  0  0
   11.1545    3.0363    0.0000 C   0  0  0  0  0  0  0  0  0  0  0  0
   11.6675    1.6267    0.0000 C   0  0  0  0  0  0  0  0  0  0  0  0
   10.4855    0.7033    0.0000 C   0  0  0  0  0  0  0  0  0  0  0  0
    9.2420    1.5420    0.0000 C   0  0  0  0  0  0  0  0  0  0  0  0
    5.2238    3.7654    0.0000 C   0  0  0  0  0  0  0  0  0  0  0  0
    4.4956    4.0896    0.0000 O   0  0  0  0  0  0  0  0  0  0  0  0
    6.1880    4.9144    0.0000 C   0  0  0  0  0  0  0  0  0  0  0  0
    6.3969    6.3998    0.0000 O   0  0  0  0  0  0  0  0  0  0  0  0
    3.6073    0.0000    0.0000 C   0  0  0  0  0  0  0  0  0  0  0  0
    3.2954   -1.4672    0.0000 C   0  0  0  0  0  0  0  0  0  0  0  0
    2.4138   -2.6807    0.0000 C   0  0  0  0  0  0  0  0  0  0  0  0
    1.1147   -3.4307    0.0000 C   0  0  0  0  0  0  0  0  0  0  0  0
   -0.3771   -3.5875    0.0000 C   0  0  0  0  0  0  0  0  0  0  0  0
   -1.8037   -3.1240    0.0000 C   0  0  0  0  0  0  0  0  0  0  0  0
   -2.9184   -2.1203    0.0000 C   0  0  0  0  0  0  0  0  0  0  0  0
   -3.5285   -0.7500    0.0000 C   0  0  0  0  0  0  0  0  0  0  0  0
   -3.5285    0.7500    0.0000 C   0  0  0  0  0  0  0  0  0  0  0  0
   -2.9184    2.1203    0.0000 C   0  0  0  0  0  0  0  0  0  0  0  0
   -1.8037    3.1240    0.0000 C   0  0  0  0  0  0  0  0  0  0  0  0
   -0.3771    3.5875    0.0000 C   0  0  0  0  0  0  0  0  0  0  0  0
    1.1147    3.4307    0.0000 C   0  0  0  0  0  0  0  0  0  0  0  0
    2.4138    2.6807    0.0000 C   0  0  0  0  0  0  0  0  0  0  0  0
    3.6741    3.1646    0.0000 O   0  0  0  0  0  0  0  0  0  0  0  0
    2.6225    4.1661    0.0000 C   0  0  0  0  0  0  0  0  0  0  0  0
    1.5619    5.2268    0.0000 O   0  0  0  0  0  0  0  0  0  0  0  0
    4.0133    4.7281    0.0000 C   0  0  0  0  0  0  0  0  0  0  0  0
    4.2221    6.2135    0.0000 C   0  0  0  0  0  0  0  0  0  0  0  0
    5.6128    6.7754    0.0000 C   0  0  0  0  0  0  0  0  0  0  0  0
    6.7948    5.8519    0.0000 C   0  0  0  0  0  0  0  0  0  0  0  0
    8.1856    6.4138    0.0000 C   0  0  0  0  0  0  0  0  0  0  0  0
    8.3944    7.8992    0.0000 C   0  0  0  0  0  0  0  0  0  0  0  0
    7.2124    8.8227    0.0000 C   0  0  0  0  0  0  0  0  0  0  0  0
    5.8216    8.2608    0.0000 C   0  0  0  0  0  0  0  0  0  0  0  0
    5.1953    3.8046    0.0000 N   0  0  0  0  0  0  0  0  0  0  0  0
    6.5861    4.3665    0.0000 C   0  0  0  0  0  0  0  0  0  0  0  0
    7.1481    5.7572    0.0000 O   0  0  0  0  0  0  0  0  0  0  0  0
    7.7681    3.4430    0.0000 C   0  0  0  0  0  0  0  0  0  0  0  0
    9.1589    4.0049    0.0000 C   0  0  0  0  0  0  0  0  0  0  0  0
    7.9769    4.9284    0.0000 C   0  0  0  0  0  0  0  0  0  0  0  0
    6.5861    4.3665    0.0000 C   0  0  0  0  0  0  0  0  0  0  0  0
    5.4041    5.2900    0.0000 N   0  0  0  0  0  0  0  0  0  0  0  0
    5.6128    6.7754    0.0000 C   0  0  0  0  0  0  0  0  0  0  0  0
    7.0036    7.3373    0.0000 O   0  0  0  0  0  0  0  0  0  0  0  0
    4.4308    7.6989    0.0000 C   0  0  0  0  0  0  0  0  0  0  0  0
    4.6396    9.1843    0.0000 C   0  0  0  0  0  0  0  0  0  0  0  0
    3.4576   10.1078    0.0000 C   0  0  0  0  0  0  0  0  0  0  0  0
    3.6663   11.5932    0.0000 C   0  0  0  0  0  0  0  0  0  0  0  0
    2.4843   12.5167    0.0000 C   0  0  0  0  0  0  0  0  0  0  0  0
    1.0935   11.9547    0.0000 C   0  0  0  0  0  0  0  0  0  0  0  0
    0.8848   10.4693    0.0000 C   0  0  0  0  0  0  0  0  0  0  0  0
    2.0668    9.5458    0.0000 C   0  0  0  0  0  0  0  0  0  0  0  0
    3.0400    7.1370    0.0000 C   0  0  0  0  0  0  0  0  0  0  0  0
    2.8313    5.6516    0.0000 O   0  0  0  0  0  0  0  0  0  0  0  0
    1.8580    8.0604    0.0000 N   0  0  0  0  0  0  0  0  0  0  0  0
    0.4672    7.4985    0.0000 C   0  0  0  0  0  0  0  0  0  0  0  0
   -0.7148    8.4220    0.0000 C   0  0  0  0  0  0  0  0  0  0  0  0
   -2.1055    7.8601    0.0000 C   0  0  0  0  0  0  0  0  0  0  0  0
   -3.2876    8.7836    0.0000 C   0  0  0  0  0  0  0  0  0  0  0  0
   -4.6783    8.2217    0.0000 C   0  0  0  0  0  0  0  0  0  0  0  0
   -4.8871    6.7363    0.0000 C   0  0  0  0  0  0  0  0  0  0  0  0
   -3.7051    5.8128    0.0000 C   0  0  0  0  0  0  0  0  0  0  0  0
   -2.3143    6.3747    0.0000 C   0  0  0  0  0  0  0  0  0  0  0  0
    0.2585    6.0131    0.0000 C   0  0  0  0  0  0  0  0  0  0  0  0
    1.5443    5.2406    0.0000 O   0  0  0  0  0  0  0  0  0  0  0  0
   -1.1323    5.4512    0.0000 O   0  0  0  0  0  0  0  0  0  0  0  0
    6.3773    2.8811    0.0000 C   0  0  0  0  0  0  0  0  0  0  0  0
    7.5593    1.9576    0.0000 C   0  0  0  0  0  0  0  0  0  0  0  0
    8.9501    2.5195    0.0000 C   0  0  0  0  0  0  0  0  0  0  0  0
  1  2  1  0
  2  3  1  0
  3  4  1  0
  4  5  1  0
  5  6  1  0
  6  7  1  0
  6  8  1  0
  8  9  1  0
  8 10  1  0
 10 11  1  0
 11 12  1  0
 12 13  1  0
  4 14  1  0
 14 15  1  0
 14 16  1  0
 16 17  1  0
  2 18  1  0
 18 19  1  0
 19 20  1  0
 20 21  1  0
 21 22  1  0
 22 23  1  0
 23 24  1  0
 24 25  1  0
 25 26  1  0
 26 27  1  0
 27 28  1  0
 28 29  1  0
 29 30  1  0
 30 31  1  0
 31 32  1  0
 31 33  1  0
 33 34  1  0
 33 35  1  0
 35 36  1  0
 36 37  1  0
 37 38  2  0
 38 39  1  0
 39 40  2  0
 40 41  1  0
 41 42  2  0
 35 43  1  0
 43 44  1  0
 44 45  2  0
 44 46  1  0
 46 47  1  0
 47 48  1  0
 48 49  1  0
 49 50  1  0
 50 51  1  0
 51 52  2  0
 51 53  1  0
 53 54  1  0
 54 55  1  0
 55 56  2  0
 56 57  1  0
 57 58  2  0
 58 59  1  0
 59 60  2  0
 53 61  1  0
 61 62  2  0
 61 63  1  0
 63 64  1  0
 64 65  1  0
 65 66  1  0
 66 67  2  0
 67 68  1  0
 68 69  2  0
 69 70  1  0
 70 71  2  0
 64 72  1  0
 72 73  2  0
 72 74  1  0
 49 75  1  0
 75 76  1  0
 76 77  1  0
 31  2  1  0
 42 37  1  0
 76 46  1  0
 13  8  1  0
 77 47  1  0
 60 55  1  0
 71 66  1  0
M  END
>  <Title>  (29) 
idAAHQgen6

$$$$

     RDKit          2D

 31 34  0  0  0  0  0  0  0  0999 V2000
    5.5620   -0.8296    0.0000 O   0  0  0  0  0  0  0  0  0  0  0  0
    6.7755   -1.7113    0.0000 C   0  0  0  0  0  0  0  0  0  0  0  0
    8.1458   -1.1012    0.0000 O   0  0  0  0  0  0  0  0  0  0  0  0
    6.6187   -3.2031    0.0000 C   0  0  0  0  0  0  0  0  0  0  0  0
    7.8322   -4.0848    0.0000 C   0  0  0  0  0  0  0  0  0  0  0  0
    9.2026   -3.4747    0.0000 C   0  0  0  0  0  0  0  0  0  0  0  0
   10.4161   -4.3563    0.0000 C   0  0  0  0  0  0  0  0  0  0  0  0
   11.7864   -3.7462    0.0000 C   0  0  0  0  0  0  0  0  0  0  0  0
   11.9432   -2.2544    0.0000 C   0  0  0  0  0  0  0  0  0  0  0  0
   10.7297   -1.3728    0.0000 C   0  0  0  0  0  0  0  0  0  0  0  0
    9.3594   -1.9829    0.0000 C   0  0  0  0  0  0  0  0  0  0  0  0
    5.2484   -3.8132    0.0000 N   0  0  0  0  0  0  0  0  0  0  0  0
    4.0349   -2.9315    0.0000 C   0  0  0  0  0  0  0  0  0  0  0  0
    4.1917   -1.4397    0.0000 O   0  0  0  0  0  0  0  0  0  0  0  0
    2.6646   -3.5416    0.0000 C   0  0  0  0  0  0  0  0  0  0  0  0
    2.5078   -5.0334    0.0000 C   0  0  0  0  0  0  0  0  0  0  0  0
    3.7213   -5.9151    0.0000 C   0  0  0  0  0  0  0  0  0  0  0  0
    3.5645   -7.4069    0.0000 C   0  0  0  0  0  0  0  0  0  0  0  0
    4.7780   -8.2885    0.0000 C   0  0  0  0  0  0  0  0  0  0  0  0
    6.1483   -7.6784    0.0000 C   0  0  0  0  0  0  0  0  0  0  0  0
    6.3051   -6.1866    0.0000 C   0  0  0  0  0  0  0  0  0  0  0  0
    5.0916   -5.3050    0.0000 C   0  0  0  0  0  0  0  0  0  0  0  0
    1.4510   -2.6599    0.0000 N   0  0  0  0  0  0  0  0  0  0  0  0
    1.6078   -1.1682    0.0000 C   0  0  0  0  0  0  0  0  0  0  0  0
    2.9781   -0.5580    0.0000 O   0  0  0  0  0  0  0  0  0  0  0  0
    0.3943   -0.2865    0.0000 C   0  0  0  0  0  0  0  0  0  0  0  0
    0.3943    1.2135    0.0000 C   0  0  0  0  0  0  0  0  0  0  0  0
    1.2760    0.0000    0.0000 C   0  0  0  0  0  0  0  0  0  0  0  0
    0.3943   -1.2135    0.0000 C   0  0  0  0  0  0  0  0  0  0  0  0
   -1.0323   -0.7500    0.0000 C   0  0  0  0  0  0  0  0  0  0  0  0
   -1.0323    0.7500    0.0000 C   0  0  0  0  0  0  0  0  0  0  0  0
  1  2  2  0
  2  3  1  0
  2  4  1  0
  4  5  1  0
  5  6  1  0
  6  7  2  0
  7  8  1  0
  8  9  2  0
  9 10  1  0
 10 11  2  0
  4 12  1  0
 12 13  1  0
 13 14  2  0
 13 15  1  0
 15 16  1  0
 16 17  1  0
 17 18  2  0
 18 19  1  0
 19 20  2  0
 20 21  1  0
 21 22  2  0
 15 23  1  0
 23 24  1  0
 24 25  2  0
 24 26  1  0
 26 27  1  0
 27 28  1  0
 28 29  1  0
 29 30  1  0
 30 31  1  0
 11  6  1  0
 22 17  1  0
 30 26  1  0
 31 27  1  0
M  END
>  <Title>  (30) 
idAAHRgen6

$$$$

     RDKit          2D

 62 69  0  0  0  0  0  0  0  0999 V2000
    1.4650    3.9205    0.0000 O   0  0  0  0  0  0  0  0  0  0  0  0
    2.0130    2.5242    0.0000 C   0  0  0  0  0  0  0  0  0  0  0  0
    3.4962    2.3006    0.0000 N   0  0  0  0  0  0  0  0  0  0  0  0
    4.4315    3.4734    0.0000 C   0  0  0  0  0  0  0  0  0  0  0  0
    5.9147    3.2498    0.0000 C   0  0  0  0  0  0  0  0  0  0  0  0
    6.8499    4.4226    0.0000 C   0  0  0  0  0  0  0  0  0  0  0  0
    6.3019    5.8189    0.0000 C   0  0  0  0  0  0  0  0  0  0  0  0
    4.8187    6.0424    0.0000 C   0  0  0  0  0  0  0  0  0  0  0  0
    3.8835    4.8697    0.0000 C   0  0  0  0  0  0  0  0  0  0  0  0
    5.3667    4.6461    0.0000 N   0  0  0  0  0  0  0  0  0  0  0  0
    4.4315    3.4734    0.0000 C   0  0  0  0  0  0  0  0  0  0  0  0
    4.9795    2.0771    0.0000 C   0  0  0  0  0  0  0  0  0  0  0  0
    4.0442    0.9043    0.0000 C   0  0  0  0  0  0  0  0  0  0  0  0
    2.5610    1.1279    0.0000 C   0  0  0  0  0  0  0  0  0  0  0  0
    1.6258   -0.0449    0.0000 C   0  0  0  0  0  0  0  0  0  0  0  0
    2.1738   -1.4412    0.0000 C   0  0  0  0  0  0  0  0  0  0  0  0
    3.6570   -1.6647    0.0000 C   0  0  0  0  0  0  0  0  0  0  0  0
    4.5923   -0.4920    0.0000 C   0  0  0  0  0  0  0  0  0  0  0  0
    1.0777    1.3515    0.0000 C   0  0  0  0  0  0  0  0  0  0  0  0
    1.7286    0.0000    0.0000 C   0  0  0  0  0  0  0  0  0  0  0  0
    1.0777   -1.3515    0.0000 O   0  0  0  0  0  0  0  0  0  0  0  0
   -0.3846   -1.6852    0.0000 C   0  0  0  0  0  0  0  0  0  0  0  0
   -1.5574   -0.7500    0.0000 C   0  0  0  0  0  0  0  0  0  0  0  0
   -1.5574    0.7500    0.0000 C   0  0  0  0  0  0  0  0  0  0  0  0
   -0.3846    1.6852    0.0000 C   0  0  0  0  0  0  0  0  0  0  0  0
   -0.3846   -0.1852    0.0000 C   0  0  0  0  0  0  0  0  0  0  0  0
    0.9668    0.4656    0.0000 C   0  0  0  0  0  0  0  0  0  0  0  0
    1.4375    1.8898    0.0000 O   0  0  0  0  0  0  0  0  0  0  0  0
    2.2062   -0.3794    0.0000 N   0  0  0  0  0  0  0  0  0  0  0  0
    3.5576    0.2714    0.0000 C   0  0  0  0  0  0  0  0  0  0  0  0
    4.7970   -0.5735    0.0000 C   0  0  0  0  0  0  0  0  0  0  0  0
    6.1484    0.0773    0.0000 C   0  0  0  0  0  0  0  0  0  0  0  0
    7.3878   -0.7677    0.0000 C   0  0  0  0  0  0  0  0  0  0  0  0
    8.7392   -0.1169    0.0000 C   0  0  0  0  0  0  0  0  0  0  0  0
    8.8513    1.3789    0.0000 C   0  0  0  0  0  0  0  0  0  0  0  0
    7.6120    2.2239    0.0000 C   0  0  0  0  0  0  0  0  0  0  0  0
    6.2605    1.5731    0.0000 C   0  0  0  0  0  0  0  0  0  0  0  0
    3.6697    1.7672    0.0000 C   0  0  0  0  0  0  0  0  0  0  0  0
    2.6717    2.8870    0.0000 O   0  0  0  0  0  0  0  0  0  0  0  0
    5.0212    2.4181    0.0000 N   0  0  0  0  0  0  0  0  0  0  0  0
    5.1333    3.9139    0.0000 C   0  0  0  0  0  0  0  0  0  0  0  0
    6.4847    4.5647    0.0000 C   0  0  0  0  0  0  0  0  0  0  0  0
    6.5968    6.0605    0.0000 C   0  0  0  0  0  0  0  0  0  0  0  0
    7.9483    6.7113    0.0000 C   0  0  0  0  0  0  0  0  0  0  0  0
    8.0604    8.2071    0.0000 C   0  0  0  0  0  0  0  0  0  0  0  0
    6.8210    9.0521    0.0000 C   0  0  0  0  0  0  0  0  0  0  0  0
    5.4696    8.4013    0.0000 C   0  0  0  0  0  0  0  0  0  0  0  0
    5.3575    6.9055    0.0000 C   0  0  0  0  0  0  0  0  0  0  0  0
    3.8939    4.7589    0.0000 C   0  0  0  0  0  0  0  0  0  0  0  0
    2.5425    4.1080    0.0000 O   0  0  0  0  0  0  0  0  0  0  0  0
    4.0060    6.2547    0.0000 N   0  0  0  0  0  0  0  0  0  0  0  0
    2.7666    7.0996    0.0000 C   0  0  0  0  0  0  0  0  0  0  0  0
    2.8787    8.5954    0.0000 C   0  0  0  0  0  0  0  0  0  0  0  0
    1.6394    9.4404    0.0000 C   0  0  0  0  0  0  0  0  0  0  0  0
    1.7515   10.9362    0.0000 C   0  0  0  0  0  0  0  0  0  0  0  0
    0.5121   11.7812    0.0000 C   0  0  0  0  0  0  0  0  0  0  0  0
   -0.8393   11.1304    0.0000 C   0  0  0  0  0  0  0  0  0  0  0  0
   -0.9514    9.6346    0.0000 C   0  0  0  0  0  0  0  0  0  0  0  0
    0.2879    8.7896    0.0000 C   0  0  0  0  0  0  0  0  0  0  0  0
    1.4152    6.4488    0.0000 C   0  0  0  0  0  0  0  0  0  0  0  0
    1.3031    4.9530    0.0000 O   0  0  0  0  0  0  0  0  0  0  0  0
    0.1758    7.2938    0.0000 O   0  0  0  0  0  0  0  0  0  0  0  0
  1  2  2  0
  2  3  1  0
  3  4  1  0
  4  5  1  0
  5  6  1  0
  6  7  1  0
  7  8  1  0
  8  9  1  0
  8 10  1  0
 10 11  1  0
 11 12  1  0
 12 13  1  0
 13 14  2  0
 14 15  1  0
 15 16  2  0
 16 17  1  0
 17 18  2  0
  2 19  1  0
 19 20  1  0
 20 21  1  0
 21 22  1  0
 22 23  1  0
 23 24  1  0
 24 25  1  0
 24 26  1  0
 26 27  1  0
 27 28  2  0
 27 29  1  0
 29 30  1  0
 30 31  1  0
 31 32  1  0
 32 33  2  0
 33 34  1  0
 34 35  2  0
 35 36  1  0
 36 37  2  0
 30 38  1  0
 38 39  2  0
 38 40  1  0
 40 41  1  0
 41 42  1  0
 42 43  1  0
 43 44  2  0
 44 45  1  0
 45 46  2  0
 46 47  1  0
 47 48  2  0
 41 49  1  0
 49 50  2  0
 49 51  1  0
 51 52  1  0
 52 53  1  0
 53 54  1  0
 54 55  2  0
 55 56  1  0
 56 57  2  0
 57 58  1  0
 58 59  2  0
 52 60  1  0
 60 61  2  0
 60 62  1  0
  9  4  1  0
 18 13  1  0
 25 19  1  0
 37 32  1  0
 48 43  1  0
 59 54  1  0
 10  6  1  0
 26 22  1  0
M  END
>  <Title>  (31) 
idAAHSgen6

$$$$

     RDKit          2D

 36 40  0  0  0  0  0  0  0  0999 V2000
   -4.7734    1.7567    0.0000 O   0  0  0  0  0  0  0  0  0  0  0  0
   -3.4031    2.3668    0.0000 C   0  0  0  0  0  0  0  0  0  0  0  0
   -3.2463    3.8586    0.0000 N   0  0  0  0  0  0  0  0  0  0  0  0
   -4.4598    4.7402    0.0000 C   0  0  0  0  0  0  0  0  0  0  0  0
   -4.3030    6.2320    0.0000 C   0  0  0  0  0  0  0  0  0  0  0  0
   -5.5165    7.1137    0.0000 C   0  0  0  0  0  0  0  0  0  0  0  0
   -5.3597    8.6055    0.0000 C   0  0  0  0  0  0  0  0  0  0  0  0
   -6.5733    9.4872    0.0000 C   0  0  0  0  0  0  0  0  0  0  0  0
   -7.9436    8.8771    0.0000 C   0  0  0  0  0  0  0  0  0  0  0  0
   -8.1004    7.3853    0.0000 C   0  0  0  0  0  0  0  0  0  0  0  0
   -6.8869    6.5036    0.0000 C   0  0  0  0  0  0  0  0  0  0  0  0
   -5.8301    4.1301    0.0000 C   0  0  0  0  0  0  0  0  0  0  0  0
   -5.9869    2.6383    0.0000 O   0  0  0  0  0  0  0  0  0  0  0  0
   -7.0436    5.0118    0.0000 O   0  0  0  0  0  0  0  0  0  0  0  0
   -2.1895    1.4851    0.0000 C   0  0  0  0  0  0  0  0  0  0  0  0
   -0.8192    2.0952    0.0000 C   0  0  0  0  0  0  0  0  0  0  0  0
    0.3943    1.2135    0.0000 C   0  0  0  0  0  0  0  0  0  0  0  0
    1.2760    0.0000    0.0000 C   0  0  0  0  0  0  0  0  0  0  0  0
    0.3943   -1.2135    0.0000 C   0  0  0  0  0  0  0  0  0  0  0  0
   -1.0323   -0.7500    0.0000 C   0  0  0  0  0  0  0  0  0  0  0  0
   -2.3463   -0.0067    0.0000 C   0  0  0  0  0  0  0  0  0  0  0  0
   -1.0323    0.7500    0.0000 N   0  0  0  0  0  0  0  0  0  0  0  0
   -2.2458    1.6317    0.0000 C   0  0  0  0  0  0  0  0  0  0  0  0
   -2.0890    3.1235    0.0000 C   0  0  0  0  0  0  0  0  0  0  0  0
   -3.3025    4.0051    0.0000 C   0  0  0  0  0  0  0  0  0  0  0  0
   -3.1458    5.4969    0.0000 C   0  0  0  0  0  0  0  0  0  0  0  0
   -4.3593    6.3786    0.0000 C   0  0  0  0  0  0  0  0  0  0  0  0
   -5.7296    5.7685    0.0000 C   0  0  0  0  0  0  0  0  0  0  0  0
   -6.9431    6.6502    0.0000 C   0  0  0  0  0  0  0  0  0  0  0  0
   -6.7863    8.1420    0.0000 C   0  0  0  0  0  0  0  0  0  0  0  0
   -7.9999    9.0236    0.0000 C   0  0  0  0  0  0  0  0  0  0  0  0
   -9.3702    8.4135    0.0000 C   0  0  0  0  0  0  0  0  0  0  0  0
   -9.5270    6.9217    0.0000 C   0  0  0  0  0  0  0  0  0  0  0  0
   -8.3134    6.0401    0.0000 N   0  0  0  0  0  0  0  0  0  0  0  0
   -5.8864    4.2767    0.0000 C   0  0  0  0  0  0  0  0  0  0  0  0
   -4.6729    3.3950    0.0000 C   0  0  0  0  0  0  0  0  0  0  0  0
  1  2  2  0
  2  3  1  0
  3  4  1  0
  4  5  1  0
  5  6  1  0
  6  7  2  0
  7  8  1  0
  8  9  2  0
  9 10  1  0
 10 11  2  0
  4 12  1  0
 12 13  2  0
 12 14  1  0
  2 15  1  0
 15 16  1  0
 16 17  1  0
 17 18  1  0
 18 19  1  0
 19 20  1  0
 20 21  1  0
 20 22  1  0
 22 23  1  0
 23 24  1  0
 24 25  1  0
 25 26  2  0
 26 27  1  0
 27 28  2  0
 28 29  1  0
 29 30  2  0
 30 31  1  0
 31 32  2  0
 32 33  1  0
 33 34  2  0
 28 35  1  0
 35 36  2  0
 11  6  1  0
 21 15  1  0
 36 25  1  0
 22 17  1  0
 34 29  1  0
M  END
>  <Title>  (32) 
idAAHTgen6

$$$$

     RDKit          2D

 60 65  0  0  0  0  0  0  0  0999 V2000
    8.4298    6.8067    0.0000 N   0  0  0  0  0  0  0  0  0  0  0  0
    6.9298    6.8067    0.0000 C   0  0  0  0  0  0  0  0  0  0  0  0
    6.1798    5.5076    0.0000 O   0  0  0  0  0  0  0  0  0  0  0  0
    6.1798    8.1057    0.0000 C   0  0  0  0  0  0  0  0  0  0  0  0
    6.9298    9.4047    0.0000 C   0  0  0  0  0  0  0  0  0  0  0  0
    8.4298    9.4047    0.0000 C   0  0  0  0  0  0  0  0  0  0  0  0
    9.1798   10.7038    0.0000 C   0  0  0  0  0  0  0  0  0  0  0  0
   10.6798   10.7038    0.0000 C   0  0  0  0  0  0  0  0  0  0  0  0
   11.4298    9.4047    0.0000 C   0  0  0  0  0  0  0  0  0  0  0  0
   10.6798    8.1057    0.0000 C   0  0  0  0  0  0  0  0  0  0  0  0
    9.1798    8.1057    0.0000 C   0  0  0  0  0  0  0  0  0  0  0  0
    4.6798    8.1057    0.0000 N   0  0  0  0  0  0  0  0  0  0  0  0
    3.9298    6.8067    0.0000 C   0  0  0  0  0  0  0  0  0  0  0  0
    4.6798    5.5076    0.0000 O   0  0  0  0  0  0  0  0  0  0  0  0
    2.4298    6.8067    0.0000 C   0  0  0  0  0  0  0  0  0  0  0  0
    1.6798    8.1057    0.0000 C   0  0  0  0  0  0  0  0  0  0  0  0
    2.4298    9.4047    0.0000 C   0  0  0  0  0  0  0  0  0  0  0  0
    1.6798   10.7038    0.0000 C   0  0  0  0  0  0  0  0  0  0  0  0
    2.4298   12.0028    0.0000 C   0  0  0  0  0  0  0  0  0  0  0  0
    3.9298   12.0028    0.0000 C   0  0  0  0  0  0  0  0  0  0  0  0
    4.6798   10.7038    0.0000 C   0  0  0  0  0  0  0  0  0  0  0  0
    3.9298    9.4047    0.0000 C   0  0  0  0  0  0  0  0  0  0  0  0
    1.6798    5.5076    0.0000 N   0  0  0  0  0  0  0  0  0  0  0  0
    2.4298    4.2086    0.0000 C   0  0  0  0  0  0  0  0  0  0  0  0
    3.9298    4.2086    0.0000 O   0  0  0  0  0  0  0  0  0  0  0  0
    1.6798    2.9095    0.0000 C   0  0  0  0  0  0  0  0  0  0  0  0
    1.6798    1.4095    0.0000 C   0  0  0  0  0  0  0  0  0  0  0  0
    2.1929    0.0000    0.0000 C   0  0  0  0  0  0  0  0  0  0  0  0
    1.6798   -1.4095    0.0000 C   0  0  0  0  0  0  0  0  0  0  0  0
    0.3808   -2.1595    0.0000 C   0  0  0  0  0  0  0  0  0  0  0  0
   -1.0964   -1.8991    0.0000 C   0  0  0  0  0  0  0  0  0  0  0  0
   -2.0606   -0.7500    0.0000 C   0  0  0  0  0  0  0  0  0  0  0  0
   -2.0606    0.7500    0.0000 C   0  0  0  0  0  0  0  0  0  0  0  0
   -1.0964    1.8991    0.0000 C   0  0  0  0  0  0  0  0  0  0  0  0
    0.3808    2.1595    0.0000 C   0  0  0  0  0  0  0  0  0  0  0  0
   -0.1322    3.5691    0.0000 C   0  0  0  0  0  0  0  0  0  0  0  0
   -1.6095    3.8296    0.0000 O   0  0  0  0  0  0  0  0  0  0  0  0
    0.8319    4.7181    0.0000 N   0  0  0  0  0  0  0  0  0  0  0  0
    0.3189    6.1277    0.0000 C   0  0  0  0  0  0  0  0  0  0  0  0
    1.2831    7.2768    0.0000 C   0  0  0  0  0  0  0  0  0  0  0  0
    0.7701    8.6863    0.0000 C   0  0  0  0  0  0  0  0  0  0  0  0
   -0.7072    8.9468    0.0000 C   0  0  0  0  0  0  0  0  0  0  0  0
   -1.2202   10.3563    0.0000 C   0  0  0  0  0  0  0  0  0  0  0  0
   -0.2560   11.5054    0.0000 C   0  0  0  0  0  0  0  0  0  0  0  0
    1.2212   11.2449    0.0000 C   0  0  0  0  0  0  0  0  0  0  0  0
    1.7342    9.8354    0.0000 C   0  0  0  0  0  0  0  0  0  0  0  0
   -1.1583    6.3882    0.0000 C   0  0  0  0  0  0  0  0  0  0  0  0
   -2.1225    5.2391    0.0000 O   0  0  0  0  0  0  0  0  0  0  0  0
   -1.6713    7.7977    0.0000 N   0  0  0  0  0  0  0  0  0  0  0  0
   -3.1485    8.0582    0.0000 C   0  0  0  0  0  0  0  0  0  0  0  0
   -3.6616    9.4677    0.0000 C   0  0  0  0  0  0  0  0  0  0  0  0
   -5.1388    9.7282    0.0000 C   0  0  0  0  0  0  0  0  0  0  0  0
   -5.6518   11.1377    0.0000 C   0  0  0  0  0  0  0  0  0  0  0  0
   -7.1290   11.3982    0.0000 C   0  0  0  0  0  0  0  0  0  0  0  0
   -8.0932   10.2491    0.0000 C   0  0  0  0  0  0  0  0  0  0  0  0
   -7.5802    8.8396    0.0000 C   0  0  0  0  0  0  0  0  0  0  0  0
   -6.1030    8.5791    0.0000 C   0  0  0  0  0  0  0  0  0  0  0  0
   -4.1127    6.9091    0.0000 C   0  0  0  0  0  0  0  0  0  0  0  0
   -3.5997    5.4996    0.0000 O   0  0  0  0  0  0  0  0  0  0  0  0
   -5.5899    7.1696    0.0000 O   0  0  0  0  0  0  0  0  0  0  0  0
  1  2  1  0
  2  3  2  0
  2  4  1  0
  4  5  1  0
  5  6  1  0
  6  7  2  0
  7  8  1  0
  8  9  2  0
  9 10  1  0
 10 11  2  0
  4 12  1  0
 12 13  1  0
 13 14  2  0
 13 15  1  0
 15 16  1  0
 16 17  1  0
 17 18  2  0
 18 19  1  0
 19 20  2  0
 20 21  1  0
 21 22  2  0
 15 23  1  0
 23 24  1  0
 24 25  2  0
 24 26  1  0
 26 27  1  0
 27 28  1  0
 28 29  1  0
 29 30  1  0
 30 31  1  0
 31 32  1  0
 32 33  1  0
 33 34  1  0
 34 35  1  0
 35 36  1  0
 36 37  2  0
 36 38  1  0
 38 39  1  0
 39 40  1  0
 40 41  1  0
 41 42  2  0
 42 43  1  0
 43 44  2  0
 44 45  1  0
 45 46  2  0
 39 47  1  0
 47 48  2  0
 47 49  1  0
 49 50  1  0
 50 51  1  0
 51 52  1  0
 52 53  2  0
 53 54  1  0
 54 55  2  0
 55 56  1  0
 56 57  2  0
 50 58  1  0
 58 59  2  0
 58 60  1  0
 11  6  1  0
 22 17  1  0
 35 26  1  0
 46 41  1  0
 57 52  1  0
 35 27  1  0
M  END
>  <Title>  (33) 
idAAHUgen6

$$$$

     RDKit          2D

 40 44  0  0  0  0  0  0  0  0999 V2000
    3.3287    1.8373    0.0000 O   0  0  0  0  0  0  0  0  0  0  0  0
    2.3250    2.9520    0.0000 C   0  0  0  0  0  0  0  0  0  0  0  0
    0.8578    2.6401    0.0000 N   0  0  0  0  0  0  0  0  0  0  0  0
    0.3943    1.2135    0.0000 C   0  0  0  0  0  0  0  0  0  0  0  0
    1.2760    0.0000    0.0000 C   0  0  0  0  0  0  0  0  0  0  0  0
    0.3943   -1.2135    0.0000 C   0  0  0  0  0  0  0  0  0  0  0  0
   -1.0323   -0.7500    0.0000 C   0  0  0  0  0  0  0  0  0  0  0  0
   -1.0323    0.7500    0.0000 C   0  0  0  0  0  0  0  0  0  0  0  0
   -0.7204   -2.2172    0.0000 C   0  0  0  0  0  0  0  0  0  0  0  0
   -1.1839   -3.6438    0.0000 C   0  0  0  0  0  0  0  0  0  0  0  0
   -0.1802   -4.7585    0.0000 O   0  0  0  0  0  0  0  0  0  0  0  0
   -2.6512   -3.9557    0.0000 N   0  0  0  0  0  0  0  0  0  0  0  0
   -3.1147   -5.3823    0.0000 C   0  0  0  0  0  0  0  0  0  0  0  0
   -4.5819   -5.6941    0.0000 C   0  0  0  0  0  0  0  0  0  0  0  0
   -5.0454   -7.1207    0.0000 C   0  0  0  0  0  0  0  0  0  0  0  0
   -6.5127   -7.4326    0.0000 C   0  0  0  0  0  0  0  0  0  0  0  0
   -6.9762   -8.8592    0.0000 C   0  0  0  0  0  0  0  0  0  0  0  0
   -5.9725   -9.9739    0.0000 C   0  0  0  0  0  0  0  0  0  0  0  0
   -4.5053   -9.6620    0.0000 C   0  0  0  0  0  0  0  0  0  0  0  0
   -4.0417   -8.2354    0.0000 C   0  0  0  0  0  0  0  0  0  0  0  0
   -2.1110   -6.4970    0.0000 C   0  0  0  0  0  0  0  0  0  0  0  0
   -0.6438   -6.1851    0.0000 O   0  0  0  0  0  0  0  0  0  0  0  0
   -2.5745   -7.9236    0.0000 N   0  0  0  0  0  0  0  0  0  0  0  0
   -1.5708   -9.0383    0.0000 C   0  0  0  0  0  0  0  0  0  0  0  0
   -2.0344  -10.4649    0.0000 C   0  0  0  0  0  0  0  0  0  0  0  0
   -1.0307  -11.5796    0.0000 C   0  0  0  0  0  0  0  0  0  0  0  0
   -1.4942  -13.0062    0.0000 C   0  0  0  0  0  0  0  0  0  0  0  0
   -0.4905  -14.1209    0.0000 C   0  0  0  0  0  0  0  0  0  0  0  0
    0.9767  -13.8090    0.0000 C   0  0  0  0  0  0  0  0  0  0  0  0
    1.4403  -12.3824    0.0000 C   0  0  0  0  0  0  0  0  0  0  0  0
    0.4366  -11.2677    0.0000 C   0  0  0  0  0  0  0  0  0  0  0  0
   -0.1036   -8.7264    0.0000 C   0  0  0  0  0  0  0  0  0  0  0  0
    0.3599   -7.2998    0.0000 O   0  0  0  0  0  0  0  0  0  0  0  0
    0.9001   -9.8411    0.0000 O   0  0  0  0  0  0  0  0  0  0  0  0
    2.7886    4.3786    0.0000 C   0  0  0  0  0  0  0  0  0  0  0  0
    4.2558    4.6904    0.0000 C   0  0  0  0  0  0  0  0  0  0  0  0
    4.7193    6.1170    0.0000 C   0  0  0  0  0  0  0  0  0  0  0  0
    3.7156    7.2317    0.0000 C   0  0  0  0  0  0  0  0  0  0  0  0
    2.2484    6.9199    0.0000 C   0  0  0  0  0  0  0  0  0  0  0  0
    1.7849    5.4933    0.0000 C   0  0  0  0  0  0  0  0  0  0  0  0
  1  2  2  0
  2  3  1  0
  3  4  1  0
  4  5  1  0
  5  6  1  0
  6  7  1  0
  7  8  1  0
  7  9  1  0
  9 10  1  0
 10 11  2  0
 10 12  1  0
 12 13  1  0
 13 14  1  0
 14 15  1  0
 15 16  2  0
 16 17  1  0
 17 18  2  0
 18 19  1  0
 19 20  2  0
 13 21  1  0
 21 22  2  0
 21 23  1  0
 23 24  1  0
 24 25  1  0
 25 26  1  0
 26 27  2  0
 27 28  1  0
 28 29  2  0
 29 30  1  0
 30 31  2  0
 24 32  1  0
 32 33  2  0
 32 34  1  0
  2 35  1  0
 35 36  2  0
 36 37  1  0
 37 38  2  0
 38 39  1  0
 39 40  2  0
  8  4  1  0
 20 15  1  0
 31 26  1  0
 40 35  1  0
  9  6  1  0
M  END
>  <Title>  (34) 
idAAHVgen6

$$$$

     RDKit          2D

 58 65  0  0  0  0  0  0  0  0999 V2000
   -4.6528   -2.6992    0.0000 O   0  0  0  0  0  0  0  0  0  0  0  0
   -3.7500   -3.8971    0.0000 C   0  0  0  0  0  0  0  0  0  0  0  0
   -2.2500   -3.8971    0.0000 N   0  0  0  0  0  0  0  0  0  0  0  0
   -1.5000   -2.5981    0.0000 C   0  0  0  0  0  0  0  0  0  0  0  0
   -0.0000   -2.5981    0.0000 C   0  0  0  0  0  0  0  0  0  0  0  0
    0.7500   -1.2990    0.0000 C   0  0  0  0  0  0  0  0  0  0  0  0
    1.5000    0.0000    0.0000 C   0  0  0  0  0  0  0  0  0  0  0  0
    0.7500    1.2990    0.0000 C   0  0  0  0  0  0  0  0  0  0  0  0
   -0.7500    1.2990    0.0000 C   0  0  0  0  0  0  0  0  0  0  0  0
   -1.5000    0.0000    0.0000 C   0  0  0  0  0  0  0  0  0  0  0  0
   -2.2500   -1.2990    0.0000 C   0  0  0  0  0  0  0  0  0  0  0  0
   -0.7500   -1.2990    0.0000 N   0  0  0  0  0  0  0  0  0  0  0  0
   -1.5000   -2.5981    0.0000 C   0  0  0  0  0  0  0  0  0  0  0  0
   -3.0000   -2.5981    0.0000 C   0  0  0  0  0  0  0  0  0  0  0  0
   -3.7500   -3.8971    0.0000 C   0  0  0  0  0  0  0  0  0  0  0  0
   -5.2500   -3.8971    0.0000 C   0  0  0  0  0  0  0  0  0  0  0  0
   -6.0000   -5.1962    0.0000 C   0  0  0  0  0  0  0  0  0  0  0  0
   -5.2500   -6.4952    0.0000 C   0  0  0  0  0  0  0  0  0  0  0  0
   -6.0000   -7.7942    0.0000 C   0  0  0  0  0  0  0  0  0  0  0  0
   -7.5000   -7.7942    0.0000 C   0  0  0  0  0  0  0  0  0  0  0  0
   -8.2500   -9.0933    0.0000 C   0  0  0  0  0  0  0  0  0  0  0  0
   -7.5000  -10.3923    0.0000 C   0  0  0  0  0  0  0  0  0  0  0  0
   -6.0000  -10.3923    0.0000 C   0  0  0  0  0  0  0  0  0  0  0  0
   -5.2500   -9.0933    0.0000 N   0  0  0  0  0  0  0  0  0  0  0  0
   -3.7500   -6.4952    0.0000 C   0  0  0  0  0  0  0  0  0  0  0  0
   -3.0000   -5.1962    0.0000 C   0  0  0  0  0  0  0  0  0  0  0  0
   -4.5000   -5.1962    0.0000 C   0  0  0  0  0  0  0  0  0  0  0  0
   -6.0000   -5.1962    0.0000 C   0  0  0  0  0  0  0  0  0  0  0  0
   -6.7500   -6.4952    0.0000 C   0  0  0  0  0  0  0  0  0  0  0  0
   -6.0000   -7.7942    0.0000 C   0  0  0  0  0  0  0  0  0  0  0  0
   -4.5000   -7.7942    0.0000 C   0  0  0  0  0  0  0  0  0  0  0  0
   -3.7500   -6.4952    0.0000 C   0  0  0  0  0  0  0  0  0  0  0  0
   -5.2500   -6.4952    0.0000 C   0  0  0  0  0  0  0  0  0  0  0  0
   -4.5000   -5.1962    0.0000 C   0  0  0  0  0  0  0  0  0  0  0  0
   -5.5420   -4.1172    0.0000 O   0  0  0  0  0  0  0  0  0  0  0  0
   -3.0000   -5.1962    0.0000 N   0  0  0  0  0  0  0  0  0  0  0  0
   -2.2500   -3.8971    0.0000 C   0  0  0  0  0  0  0  0  0  0  0  0
   -0.7500   -3.8971    0.0000 C   0  0  0  0  0  0  0  0  0  0  0  0
    0.0000   -2.5981    0.0000 C   0  0  0  0  0  0  0  0  0  0  0  0
    1.5000   -2.5981    0.0000 C   0  0  0  0  0  0  0  0  0  0  0  0
    2.2500   -1.2990    0.0000 C   0  0  0  0  0  0  0  0  0  0  0  0
    1.5000   -0.0000    0.0000 C   0  0  0  0  0  0  0  0  0  0  0  0
    0.0000   -0.0000    0.0000 C   0  0  0  0  0  0  0  0  0  0  0  0
   -0.7500   -1.2990    0.0000 C   0  0  0  0  0  0  0  0  0  0  0  0
   -3.0000   -2.5981    0.0000 C   0  0  0  0  0  0  0  0  0  0  0  0
   -4.4888   -2.4152    0.0000 O   0  0  0  0  0  0  0  0  0  0  0  0
   -2.2500   -1.2990    0.0000 N   0  0  0  0  0  0  0  0  0  0  0  0
   -3.0000   -0.0000    0.0000 C   0  0  0  0  0  0  0  0  0  0  0  0
   -2.2500    1.2990    0.0000 C   0  0  0  0  0  0  0  0  0  0  0  0
   -3.0000    2.5981    0.0000 C   0  0  0  0  0  0  0  0  0  0  0  0
   -2.2500    3.8971    0.0000 C   0  0  0  0  0  0  0  0  0  0  0  0
   -3.0000    5.1962    0.0000 C   0  0  0  0  0  0  0  0  0  0  0  0
   -4.5000    5.1962    0.0000 C   0  0  0  0  0  0  0  0  0  0  0  0
   -5.2500    3.8971    0.0000 C   0  0  0  0  0  0  0  0  0  0  0  0
   -4.5000    2.5981    0.0000 C   0  0  0  0  0  0  0  0  0  0  0  0
   -4.5000   -0.0000    0.0000 C   0  0  0  0  0  0  0  0  0  0  0  0
   -5.2500   -1.2990    0.0000 O   0  0  0  0  0  0  0  0  0  0  0  0
   -5.2500    1.2990    0.0000 O   0  0  0  0  0  0  0  0  0  0  0  0
  1  2  2  0
  2  3  1  0
  3  4  1  0
  4  5  1  0
  5  6  1  0
  6  7  1  0
  7  8  1  0
  8  9  1  0
  9 10  1  0
 10 11  1  0
 10 12  1  0
 12 13  1  0
 13 14  1  0
 14 15  1  0
 15 16  2  0
 16 17  1  0
 17 18  2  0
 18 19  1  0
 19 20  2  0
 20 21  1  0
 21 22  2  0
 22 23  1  0
 23 24  2  0
 18 25  1  0
 25 26  2  0
  2 27  1  0
 27 28  1  0
 28 29  1  0
 29 30  1  0
 30 31  1  0
 31 32  1  0
 31 33  1  0
 33 34  1  0
 34 35  2  0
 34 36  1  0
 36 37  1  0
 37 38  1  0
 38 39  1  0
 39 40  2  0
 40 41  1  0
 41 42  2  0
 42 43  1  0
 43 44  2  0
 37 45  1  0
 45 46  2  0
 45 47  1  0
 47 48  1  0
 48 49  1  0
 49 50  1  0
 50 51  2  0
 51 52  1  0
 52 53  2  0
 53 54  1  0
 54 55  2  0
 48 56  1  0
 56 57  2  0
 56 58  1  0
 11  4  1  0
 26 15  1  0
 32 27  1  0
 44 39  1  0
 55 50  1  0
 12  6  1  0
 24 19  1  0
 33 29  1  0
M  END
>  <Title>  (35) 
idAAHWgen6

$$$$

     RDKit          2D

 30 33  0  0  0  0  0  0  0  0999 V2000
   -4.7734    1.7567    0.0000 O   0  0  0  0  0  0  0  0  0  0  0  0
   -3.4031    2.3668    0.0000 C   0  0  0  0  0  0  0  0  0  0  0  0
   -3.2463    3.8586    0.0000 N   0  0  0  0  0  0  0  0  0  0  0  0
   -4.4598    4.7402    0.0000 C   0  0  0  0  0  0  0  0  0  0  0  0
   -4.3030    6.2320    0.0000 C   0  0  0  0  0  0  0  0  0  0  0  0
   -5.5165    7.1137    0.0000 C   0  0  0  0  0  0  0  0  0  0  0  0
   -5.3597    8.6055    0.0000 C   0  0  0  0  0  0  0  0  0  0  0  0
   -6.5733    9.4872    0.0000 C   0  0  0  0  0  0  0  0  0  0  0  0
   -7.9436    8.8771    0.0000 C   0  0  0  0  0  0  0  0  0  0  0  0
   -8.1004    7.3853    0.0000 C   0  0  0  0  0  0  0  0  0  0  0  0
   -6.8869    6.5036    0.0000 C   0  0  0  0  0  0  0  0  0  0  0  0
   -5.8301    4.1301    0.0000 C   0  0  0  0  0  0  0  0  0  0  0  0
   -5.9869    2.6383    0.0000 O   0  0  0  0  0  0  0  0  0  0  0  0
   -7.0436    5.0118    0.0000 O   0  0  0  0  0  0  0  0  0  0  0  0
   -2.1895    1.4851    0.0000 C   0  0  0  0  0  0  0  0  0  0  0  0
   -0.8192    2.0952    0.0000 C   0  0  0  0  0  0  0  0  0  0  0  0
    0.3943    1.2135    0.0000 C   0  0  0  0  0  0  0  0  0  0  0  0
    1.2760    0.0000    0.0000 C   0  0  0  0  0  0  0  0  0  0  0  0
    0.3943   -1.2135    0.0000 C   0  0  0  0  0  0  0  0  0  0  0  0
   -1.0323   -0.7500    0.0000 C   0  0  0  0  0  0  0  0  0  0  0  0
   -2.3463   -0.0067    0.0000 C   0  0  0  0  0  0  0  0  0  0  0  0
   -1.0323    0.7500    0.0000 N   0  0  0  0  0  0  0  0  0  0  0  0
   -2.2458    1.6317    0.0000 C   0  0  0  0  0  0  0  0  0  0  0  0
   -2.0890    3.1235    0.0000 C   0  0  0  0  0  0  0  0  0  0  0  0
   -3.3025    4.0051    0.0000 C   0  0  0  0  0  0  0  0  0  0  0  0
   -3.1458    5.4969    0.0000 C   0  0  0  0  0  0  0  0  0  0  0  0
   -4.3593    6.3786    0.0000 C   0  0  0  0  0  0  0  0  0  0  0  0
   -5.7296    5.7685    0.0000 C   0  0  0  0  0  0  0  0  0  0  0  0
   -5.8864    4.2767    0.0000 C   0  0  0  0  0  0  0  0  0  0  0  0
   -4.6729    3.3950    0.0000 C   0  0  0  0  0  0  0  0  0  0  0  0
  1  2  2  0
  2  3  1  0
  3  4  1  0
  4  5  1  0
  5  6  1  0
  6  7  2  0
  7  8  1  0
  8  9  2  0
  9 10  1  0
 10 11  2  0
  4 12  1  0
 12 13  2  0
 12 14  1  0
  2 15  1  0
 15 16  1  0
 16 17  1  0
 17 18  1  0
 18 19  1  0
 19 20  1  0
 20 21  1  0
 20 22  1  0
 22 23  1  0
 23 24  1  0
 24 25  1  0
 25 26  2  0
 26 27  1  0
 27 28  2  0
 28 29  1  0
 29 30  2  0
 11  6  1  0
 21 15  1  0
 30 25  1  0
 22 17  1  0
M  END
>  <Title>  (36) 
idAAHXgen6

$$$$

     RDKit          2D

 34 39  0  0  0  0  0  0  0  0999 V2000
   -1.8760    4.4687    0.0000 O   0  0  0  0  0  0  0  0  0  0  0  0
   -3.2463    3.8586    0.0000 C   0  0  0  0  0  0  0  0  0  0  0  0
   -3.4031    2.3668    0.0000 N   0  0  0  0  0  0  0  0  0  0  0  0
   -2.1895    1.4851    0.0000 C   0  0  0  0  0  0  0  0  0  0  0  0
   -0.8192    2.0952    0.0000 C   0  0  0  0  0  0  0  0  0  0  0  0
    0.3943    1.2135    0.0000 C   0  0  0  0  0  0  0  0  0  0  0  0
    1.2760    0.0000    0.0000 C   0  0  0  0  0  0  0  0  0  0  0  0
    0.3943   -1.2135    0.0000 C   0  0  0  0  0  0  0  0  0  0  0  0
   -1.0323   -0.7500    0.0000 C   0  0  0  0  0  0  0  0  0  0  0  0
   -2.3463   -0.0067    0.0000 C   0  0  0  0  0  0  0  0  0  0  0  0
   -1.0323    0.7500    0.0000 N   0  0  0  0  0  0  0  0  0  0  0  0
   -2.2458    1.6317    0.0000 C   0  0  0  0  0  0  0  0  0  0  0  0
   -2.0890    3.1235    0.0000 C   0  0  0  0  0  0  0  0  0  0  0  0
   -3.3025    4.0051    0.0000 C   0  0  0  0  0  0  0  0  0  0  0  0
   -3.1458    5.4969    0.0000 C   0  0  0  0  0  0  0  0  0  0  0  0
   -4.3593    6.3786    0.0000 C   0  0  0  0  0  0  0  0  0  0  0  0
   -5.7296    5.7685    0.0000 C   0  0  0  0  0  0  0  0  0  0  0  0
   -5.8864    4.2767    0.0000 C   0  0  0  0  0  0  0  0  0  0  0  0
   -4.6729    3.3950    0.0000 C   0  0  0  0  0  0  0  0  0  0  0  0
   -4.4598    4.7402    0.0000 C   0  0  0  0  0  0  0  0  0  0  0  0
   -4.3030    6.2320    0.0000 C   0  0  0  0  0  0  0  0  0  0  0  0
   -5.5165    7.1137    0.0000 C   0  0  0  0  0  0  0  0  0  0  0  0
   -6.8869    6.5036    0.0000 C   0  0  0  0  0  0  0  0  0  0  0  0
   -7.0436    5.0118    0.0000 C   0  0  0  0  0  0  0  0  0  0  0  0
   -5.8301    4.1301    0.0000 C   0  0  0  0  0  0  0  0  0  0  0  0
   -5.6733    5.6219    0.0000 N   0  0  0  0  0  0  0  0  0  0  0  0
   -4.4598    4.7402    0.0000 C   0  0  0  0  0  0  0  0  0  0  0  0
   -4.6166    3.2485    0.0000 C   0  0  0  0  0  0  0  0  0  0  0  0
   -3.4031    2.3668    0.0000 C   0  0  0  0  0  0  0  0  0  0  0  0
   -3.5599    0.8750    0.0000 C   0  0  0  0  0  0  0  0  0  0  0  0
   -2.3463   -0.0067    0.0000 C   0  0  0  0  0  0  0  0  0  0  0  0
   -0.9760    0.6034    0.0000 C   0  0  0  0  0  0  0  0  0  0  0  0
   -0.8192    2.0952    0.0000 C   0  0  0  0  0  0  0  0  0  0  0  0
   -2.0328    2.9769    0.0000 C   0  0  0  0  0  0  0  0  0  0  0  0
  1  2  2  0
  2  3  1  0
  3  4  1  0
  4  5  1  0
  5  6  1  0
  6  7  1  0
  7  8  1  0
  8  9  1  0
  9 10  1  0
  9 11  1  0
 11 12  1  0
 12 13  1  0
 13 14  1  0
 14 15  2  0
 15 16  1  0
 16 17  2  0
 17 18  1  0
 18 19  2  0
  2 20  1  0
 20 21  1  0
 21 22  1  0
 22 23  1  0
 23 24  1  0
 24 25  1  0
 24 26  1  0
 26 27  1  0
 27 28  1  0
 28 29  1  0
 29 30  2  0
 30 31  1  0
 31 32  2  0
 32 33  1  0
 33 34  2  0
 10  4  1  0
 19 14  1  0
 25 20  1  0
 34 29  1  0
 11  6  1  0
 26 22  1  0
M  END
>  <Title>  (37) 
idAAHYgen6

$$$$

     RDKit          2D

 41 46  0  0  0  0  0  0  0  0999 V2000
    3.7632   -4.7971    0.0000 C   0  0  0  0  0  0  0  0  0  0  0  0
    2.7990   -5.9462    0.0000 C   0  0  0  0  0  0  0  0  0  0  0  0
    3.7632   -7.0952    0.0000 C   0  0  0  0  0  0  0  0  0  0  0  0
    3.2502   -8.5048    0.0000 C   0  0  0  0  0  0  0  0  0  0  0  0
    4.2144   -9.6538    0.0000 C   0  0  0  0  0  0  0  0  0  0  0  0
    3.7013  -11.0634    0.0000 C   0  0  0  0  0  0  0  0  0  0  0  0
    2.2241  -11.3238    0.0000 O   0  0  0  0  0  0  0  0  0  0  0  0
    4.6655  -12.2124    0.0000 C   0  0  0  0  0  0  0  0  0  0  0  0
    5.7075  -11.1334    0.0000 O   0  0  0  0  0  0  0  0  0  0  0  0
    5.8475  -13.1359    0.0000 C   0  0  0  0  0  0  0  0  0  0  0  0
    5.3345  -14.5455    0.0000 C   0  0  0  0  0  0  0  0  0  0  0  0
    3.8354  -14.4931    0.0000 C   0  0  0  0  0  0  0  0  0  0  0  0
    3.4220  -13.0512    0.0000 C   0  0  0  0  0  0  0  0  0  0  0  0
    1.7730   -8.7652    0.0000 C   0  0  0  0  0  0  0  0  0  0  0  0
    0.8088   -7.6162    0.0000 O   0  0  0  0  0  0  0  0  0  0  0  0
    1.2599  -10.1748    0.0000 N   0  0  0  0  0  0  0  0  0  0  0  0
   -0.2173  -10.4352    0.0000 C   0  0  0  0  0  0  0  0  0  0  0  0
   -0.7303  -11.8448    0.0000 C   0  0  0  0  0  0  0  0  0  0  0  0
   -2.2075  -12.1053    0.0000 C   0  0  0  0  0  0  0  0  0  0  0  0
   -3.1717  -10.9562    0.0000 C   0  0  0  0  0  0  0  0  0  0  0  0
   -4.6489  -11.2167    0.0000 C   0  0  0  0  0  0  0  0  0  0  0  0
   -5.1619  -12.6262    0.0000 C   0  0  0  0  0  0  0  0  0  0  0  0
   -4.1977  -13.7753    0.0000 C   0  0  0  0  0  0  0  0  0  0  0  0
   -2.7205  -13.5148    0.0000 C   0  0  0  0  0  0  0  0  0  0  0  0
   -1.1814   -9.2862    0.0000 C   0  0  0  0  0  0  0  0  0  0  0  0
   -0.6684   -7.8766    0.0000 O   0  0  0  0  0  0  0  0  0  0  0  0
   -2.6587   -9.5466    0.0000 O   0  0  0  0  0  0  0  0  0  0  0  0
    1.5000   -6.6962    0.0000 C   0  0  0  0  0  0  0  0  0  0  0  0
    1.5000   -5.1962    0.0000 C   0  0  0  0  0  0  0  0  0  0  0  0
    0.7500   -3.8971    0.0000 C   0  0  0  0  0  0  0  0  0  0  0  0
    1.5000   -2.5981    0.0000 C   0  0  0  0  0  0  0  0  0  0  0  0
    0.7500   -1.2990    0.0000 C   0  0  0  0  0  0  0  0  0  0  0  0
    1.5000    0.0000    0.0000 C   0  0  0  0  0  0  0  0  0  0  0  0
    0.7500    1.2990    0.0000 C   0  0  0  0  0  0  0  0  0  0  0  0
   -0.7500    1.2990    0.0000 C   0  0  0  0  0  0  0  0  0  0  0  0
   -1.5000    0.0000    0.0000 C   0  0  0  0  0  0  0  0  0  0  0  0
    1.7010   -0.7500    0.0000 C   0  0  0  0  0  0  0  0  0  0  0  0
    3.0000   -0.0000    0.0000 C   0  0  0  0  0  0  0  0  0  0  0  0
    2.2500    1.2990    0.0000 C   0  0  0  0  0  0  0  0  0  0  0  0
    2.2500   -1.2990    0.0000 C   0  0  0  0  0  0  0  0  0  0  0  0
   -0.7500   -1.2990    0.0000 C   0  0  0  0  0  0  0  0  0  0  0  0
  1  2  1  0
  2  3  1  0
  3  4  1  0
  4  5  1  0
  5  6  1  0
  6  7  1  0
  6  8  1  0
  8  9  1  0
  8 10  1  0
 10 11  1  0
 11 12  1  0
 12 13  1  0
  4 14  1  0
 14 15  2  0
 14 16  1  0
 16 17  1  0
 17 18  1  0
 18 19  1  0
 19 20  2  0
 20 21  1  0
 21 22  2  0
 22 23  1  0
 23 24  2  0
 17 25  1  0
 25 26  2  0
 25 27  1  0
  2 28  1  0
 28 29  1  0
 29 30  1  0
 30 31  1  0
 31 32  1  0
 32 33  1  0
 33 34  1  0
 34 35  1  0
 35 36  1  0
 36 37  1  0
 37 38  1  0
 38 39  1  0
 38 40  1  0
 36 41  1  0
 29  2  1  0
 40 32  1  0
 13  8  1  0
 24 19  1  0
 41 32  1  0
 39 34  1  0
M  END
>  <Title>  (38) 
idAAHZgen6

$$$$

     RDKit          2D

 57 62  0  0  0  0  0  0  0  0999 V2000
    4.5000   -2.5981    0.0000 O   0  0  0  0  0  0  0  0  0  0  0  0
    5.2500   -3.8971    0.0000 C   0  0  0  0  0  0  0  0  0  0  0  0
    6.7500   -3.8971    0.0000 O   0  0  0  0  0  0  0  0  0  0  0  0
    4.5000   -5.1962    0.0000 C   0  0  0  0  0  0  0  0  0  0  0  0
    5.2500   -6.4952    0.0000 C   0  0  0  0  0  0  0  0  0  0  0  0
    6.7500   -6.4952    0.0000 C   0  0  0  0  0  0  0  0  0  0  0  0
    7.5000   -7.7942    0.0000 C   0  0  0  0  0  0  0  0  0  0  0  0
    9.0000   -7.7942    0.0000 C   0  0  0  0  0  0  0  0  0  0  0  0
    9.7500   -6.4952    0.0000 C   0  0  0  0  0  0  0  0  0  0  0  0
    9.0000   -5.1962    0.0000 C   0  0  0  0  0  0  0  0  0  0  0  0
    7.5000   -5.1962    0.0000 C   0  0  0  0  0  0  0  0  0  0  0  0
    3.0000   -5.1962    0.0000 N   0  0  0  0  0  0  0  0  0  0  0  0
    2.2500   -3.8971    0.0000 C   0  0  0  0  0  0  0  0  0  0  0  0
    3.0000   -2.5981    0.0000 O   0  0  0  0  0  0  0  0  0  0  0  0
    0.7500   -3.8971    0.0000 C   0  0  0  0  0  0  0  0  0  0  0  0
   -0.0000   -5.1962    0.0000 C   0  0  0  0  0  0  0  0  0  0  0  0
    0.7500   -6.4952    0.0000 C   0  0  0  0  0  0  0  0  0  0  0  0
   -0.0000   -7.7942    0.0000 C   0  0  0  0  0  0  0  0  0  0  0  0
    0.7500   -9.0933    0.0000 C   0  0  0  0  0  0  0  0  0  0  0  0
    2.2500   -9.0933    0.0000 C   0  0  0  0  0  0  0  0  0  0  0  0
    3.0000   -7.7942    0.0000 C   0  0  0  0  0  0  0  0  0  0  0  0
    2.2500   -6.4952    0.0000 C   0  0  0  0  0  0  0  0  0  0  0  0
   -0.0000   -2.5981    0.0000 N   0  0  0  0  0  0  0  0  0  0  0  0
    0.7500   -1.2990    0.0000 C   0  0  0  0  0  0  0  0  0  0  0  0
    2.2500   -1.2990    0.0000 O   0  0  0  0  0  0  0  0  0  0  0  0
   -0.0000    0.0000    0.0000 C   0  0  0  0  0  0  0  0  0  0  0  0
   -1.5000    0.0000    0.0000 C   0  0  0  0  0  0  0  0  0  0  0  0
   -0.7500   -1.2990    0.0000 C   0  0  0  0  0  0  0  0  0  0  0  0
    0.7500   -1.2990    0.0000 C   0  0  0  0  0  0  0  0  0  0  0  0
    1.5000   -2.5981    0.0000 N   0  0  0  0  0  0  0  0  0  0  0  0
    0.7500   -3.8971    0.0000 C   0  0  0  0  0  0  0  0  0  0  0  0
   -0.7500   -3.8971    0.0000 O   0  0  0  0  0  0  0  0  0  0  0  0
    1.5000   -5.1962    0.0000 C   0  0  0  0  0  0  0  0  0  0  0  0
    0.7500   -6.4952    0.0000 C   0  0  0  0  0  0  0  0  0  0  0  0
    1.5000   -7.7942    0.0000 C   0  0  0  0  0  0  0  0  0  0  0  0
    0.7500   -9.0933    0.0000 C   0  0  0  0  0  0  0  0  0  0  0  0
    1.5000  -10.3923    0.0000 C   0  0  0  0  0  0  0  0  0  0  0  0
    3.0000  -10.3923    0.0000 C   0  0  0  0  0  0  0  0  0  0  0  0
    3.7500   -9.0933    0.0000 C   0  0  0  0  0  0  0  0  0  0  0  0
    3.0000   -7.7942    0.0000 C   0  0  0  0  0  0  0  0  0  0  0  0
    3.0000   -5.1962    0.0000 C   0  0  0  0  0  0  0  0  0  0  0  0
    3.7500   -3.8971    0.0000 O   0  0  0  0  0  0  0  0  0  0  0  0
    3.7500   -6.4952    0.0000 N   0  0  0  0  0  0  0  0  0  0  0  0
    5.2500   -6.4952    0.0000 C   0  0  0  0  0  0  0  0  0  0  0  0
    6.0000   -7.7942    0.0000 C   0  0  0  0  0  0  0  0  0  0  0  0
    7.5000   -7.7942    0.0000 C   0  0  0  0  0  0  0  0  0  0  0  0
    8.2500   -9.0933    0.0000 C   0  0  0  0  0  0  0  0  0  0  0  0
    9.7500   -9.0933    0.0000 C   0  0  0  0  0  0  0  0  0  0  0  0
   10.5000   -7.7942    0.0000 C   0  0  0  0  0  0  0  0  0  0  0  0
    9.7500   -6.4952    0.0000 C   0  0  0  0  0  0  0  0  0  0  0  0
    8.2500   -6.4952    0.0000 C   0  0  0  0  0  0  0  0  0  0  0  0
    6.0000   -5.1962    0.0000 C   0  0  0  0  0  0  0  0  0  0  0  0
    5.5866   -3.7542    0.0000 O   0  0  0  0  0  0  0  0  0  0  0  0
    7.4554   -4.8332    0.0000 O   0  0  0  0  0  0  0  0  0  0  0  0
    1.5000    0.0000    0.0000 C   0  0  0  0  0  0  0  0  0  0  0  0
    0.7500    1.2990    0.0000 C   0  0  0  0  0  0  0  0  0  0  0  0
   -0.7500    1.2990    0.0000 C   0  0  0  0  0  0  0  0  0  0  0  0
  1  2  2  0
  2  3  1  0
  2  4  1  0
  4  5  1  0
  5  6  1  0
  6  7  2  0
  7  8  1  0
  8  9  2  0
  9 10  1  0
 10 11  2  0
  4 12  1  0
 12 13  1  0
 13 14  2  0
 13 15  1  0
 15 16  1  0
 16 17  1  0
 17 18  2  0
 18 19  1  0
 19 20  2  0
 20 21  1  0
 21 22  2  0
 15 23  1  0
 23 24  1  0
 24 25  2  0
 24 26  1  0
 26 27  1  0
 27 28  1  0
 28 29  1  0
 29 30  1  0
 30 31  1  0
 31 32  2  0
 31 33  1  0
 33 34  1  0
 34 35  1  0
 35 36  2  0
 36 37  1  0
 37 38  2  0
 38 39  1  0
 39 40  2  0
 33 41  1  0
 41 42  2  0
 41 43  1  0
 43 44  1  0
 44 45  1  0
 45 46  1  0
 46 47  2  0
 47 48  1  0
 48 49  2  0
 49 50  1  0
 50 51  2  0
 44 52  1  0
 52 53  2  0
 52 54  1  0
 29 55  1  0
 55 56  1  0
 56 57  1  0
 11  6  1  0
 22 17  1  0
 56 26  1  0
 57 27  1  0
 40 35  1  0
 51 46  1  0
M  END
>  <Title>  (39) 
idAAIAgen6

$$$$

     RDKit          2D

 71 77  0  0  0  0  0  0  0  0999 V2000
    5.7527   -7.2010    0.0000 C   0  0  0  0  0  0  0  0  0  0  0  0
    4.3432   -6.6879    0.0000 C   0  0  0  0  0  0  0  0  0  0  0  0
    2.8514   -6.5311    0.0000 C   0  0  0  0  0  0  0  0  0  0  0  0
    4.1864   -8.1797    0.0000 C   0  0  0  0  0  0  0  0  0  0  0  0
    4.5000   -5.1962    0.0000 C   0  0  0  0  0  0  0  0  0  0  0  0
    3.0000   -5.1962    0.0000 C   0  0  0  0  0  0  0  0  0  0  0  0
    2.2500   -3.8971    0.0000 C   0  0  0  0  0  0  0  0  0  0  0  0
    3.0000   -2.5981    0.0000 O   0  0  0  0  0  0  0  0  0  0  0  0
    0.7500   -3.8971    0.0000 C   0  0  0  0  0  0  0  0  0  0  0  0
   -0.0000   -5.1962    0.0000 C   0  0  0  0  0  0  0  0  0  0  0  0
   -1.5000   -5.1962    0.0000 C   0  0  0  0  0  0  0  0  0  0  0  0
   -2.2500   -6.4952    0.0000 C   0  0  0  0  0  0  0  0  0  0  0  0
   -3.7500   -6.4952    0.0000 C   0  0  0  0  0  0  0  0  0  0  0  0
   -4.5000   -5.1962    0.0000 C   0  0  0  0  0  0  0  0  0  0  0  0
   -3.7500   -3.8971    0.0000 C   0  0  0  0  0  0  0  0  0  0  0  0
   -2.2500   -3.8971    0.0000 C   0  0  0  0  0  0  0  0  0  0  0  0
   -0.0000   -2.5981    0.0000 N   0  0  0  0  0  0  0  0  0  0  0  0
    0.7500   -1.2990    0.0000 C   0  0  0  0  0  0  0  0  0  0  0  0
    2.2054   -0.9361    0.0000 O   0  0  0  0  0  0  0  0  0  0  0  0
   -0.0000    0.0000    0.0000 C   0  0  0  0  0  0  0  0  0  0  0  0
   -1.5000    0.0000    0.0000 C   0  0  0  0  0  0  0  0  0  0  0  0
   -0.7500   -1.2990    0.0000 C   0  0  0  0  0  0  0  0  0  0  0  0
    0.7500   -1.2990    0.0000 C   0  0  0  0  0  0  0  0  0  0  0  0
    1.5000   -2.5981    0.0000 N   0  0  0  0  0  0  0  0  0  0  0  0
    0.7500   -3.8971    0.0000 C   0  0  0  0  0  0  0  0  0  0  0  0
   -0.7388   -4.0800    0.0000 O   0  0  0  0  0  0  0  0  0  0  0  0
    1.5000   -5.1962    0.0000 C   0  0  0  0  0  0  0  0  0  0  0  0
    0.7500   -6.4952    0.0000 C   0  0  0  0  0  0  0  0  0  0  0  0
    1.5000   -7.7942    0.0000 C   0  0  0  0  0  0  0  0  0  0  0  0
    0.7500   -9.0933    0.0000 C   0  0  0  0  0  0  0  0  0  0  0  0
    1.5000  -10.3923    0.0000 C   0  0  0  0  0  0  0  0  0  0  0  0
    3.0000  -10.3923    0.0000 C   0  0  0  0  0  0  0  0  0  0  0  0
    3.7500   -9.0933    0.0000 C   0  0  0  0  0  0  0  0  0  0  0  0
    3.0000   -7.7942    0.0000 C   0  0  0  0  0  0  0  0  0  0  0  0
    3.0000   -5.1962    0.0000 C   0  0  0  0  0  0  0  0  0  0  0  0
    3.4134   -3.7542    0.0000 O   0  0  0  0  0  0  0  0  0  0  0  0
    3.7500   -6.4952    0.0000 N   0  0  0  0  0  0  0  0  0  0  0  0
    5.2500   -6.4952    0.0000 C   0  0  0  0  0  0  0  0  0  0  0  0
    6.0000   -7.7942    0.0000 C   0  0  0  0  0  0  0  0  0  0  0  0
    7.5000   -7.7942    0.0000 C   0  0  0  0  0  0  0  0  0  0  0  0
    8.2500   -9.0933    0.0000 C   0  0  0  0  0  0  0  0  0  0  0  0
    9.7500   -9.0933    0.0000 C   0  0  0  0  0  0  0  0  0  0  0  0
   10.5000   -7.7942    0.0000 C   0  0  0  0  0  0  0  0  0  0  0  0
    9.7500   -6.4952    0.0000 C   0  0  0  0  0  0  0  0  0  0  0  0
    8.2500   -6.4952    0.0000 C   0  0  0  0  0  0  0  0  0  0  0  0
    6.0000   -5.1962    0.0000 C   0  0  0  0  0  0  0  0  0  0  0  0
    5.2500   -3.8971    0.0000 O   0  0  0  0  0  0  0  0  0  0  0  0
    7.5000   -5.1962    0.0000 O   0  0  0  0  0  0  0  0  0  0  0  0
    1.5000    0.0000    0.0000 C   0  0  0  0  0  0  0  0  0  0  0  0
    0.7500    1.2990    0.0000 C   0  0  0  0  0  0  0  0  0  0  0  0
   -0.7500    1.2990    0.0000 C   0  0  0  0  0  0  0  0  0  0  0  0
    5.9672   -5.5080    0.0000 C   0  0  0  0  0  0  0  0  0  0  0  0
    6.7172   -4.2090    0.0000 C   0  0  0  0  0  0  0  0  0  0  0  0
    5.7135   -3.0943    0.0000 C   0  0  0  0  0  0  0  0  0  0  0  0
    4.3432   -3.7044    0.0000 C   0  0  0  0  0  0  0  0  0  0  0  0
    3.8797   -2.2778    0.0000 C   0  0  0  0  0  0  0  0  0  0  0  0
    2.8760   -4.0162    0.0000 C   0  0  0  0  0  0  0  0  0  0  0  0
    1.8723   -2.9015    0.0000 C   0  0  0  0  0  0  0  0  0  0  0  0
    0.4051   -3.2134    0.0000 C   0  0  0  0  0  0  0  0  0  0  0  0
   -0.5986   -2.0987    0.0000 C   0  0  0  0  0  0  0  0  0  0  0  0
   -0.4941   -0.6023    0.0000 O   0  0  0  0  0  0  0  0  0  0  0  0
   -2.0658   -2.4105    0.0000 C   0  0  0  0  0  0  0  0  0  0  0  0
   -1.4319   -3.7700    0.0000 O   0  0  0  0  0  0  0  0  0  0  0  0
   -3.4362   -3.0206    0.0000 C   0  0  0  0  0  0  0  0  0  0  0  0
   -4.4399   -1.9059    0.0000 C   0  0  0  0  0  0  0  0  0  0  0  0
   -3.6899   -0.6069    0.0000 C   0  0  0  0  0  0  0  0  0  0  0  0
   -2.2226   -0.9188    0.0000 C   0  0  0  0  0  0  0  0  0  0  0  0
    2.3358   -1.4749    0.0000 C   0  0  0  0  0  0  0  0  0  0  0  0
    1.0922   -0.6362    0.0000 O   0  0  0  0  0  0  0  0  0  0  0  0
    3.8030   -1.1631    0.0000 C   0  0  0  0  0  0  0  0  0  0  0  0
    4.2666    0.2635    0.0000 O   0  0  0  0  0  0  0  0  0  0  0  0
  1  2  1  0
  2  3  1  0
  2  4  1  0
  2  5  1  0
  5  6  1  0
  6  7  1  0
  7  8  1  0
  7  9  1  0
  9 10  1  0
 10 11  1  0
 11 12  2  0
 12 13  1  0
 13 14  2  0
 14 15  1  0
 15 16  2  0
  9 17  1  0
 17 18  1  0
 18 19  2  0
 18 20  1  0
 20 21  1  0
 21 22  1  0
 22 23  1  0
 23 24  1  0
 24 25  1  0
 25 26  2  0
 25 27  1  0
 27 28  1  0
 28 29  1  0
 29 30  2  0
 30 31  1  0
 31 32  2  0
 32 33  1  0
 33 34  2  0
 27 35  1  0
 35 36  2  0
 35 37  1  0
 37 38  1  0
 38 39  1  0
 39 40  1  0
 40 41  2  0
 41 42  1  0
 42 43  2  0
 43 44  1  0
 44 45  2  0
 38 46  1  0
 46 47  2  0
 46 48  1  0
 23 49  1  0
 49 50  1  0
 50 51  1  0
  5 52  1  0
 52 53  1  0
 53 54  1  0
 54 55  1  0
 55 56  1  0
 55 57  1  0
 57 58  1  0
 58 59  1  0
 59 60  1  0
 60 61  1  0
 60 62  1  0
 62 63  1  0
 62 64  1  0
 64 65  1  0
 65 66  1  0
 66 67  1  0
 58 68  1  0
 68 69  1  0
 68 70  1  0
 70 71  1  0
 55  5  1  0
 67 62  1  0
 16 11  1  0
 50 20  1  0
 51 21  1  0
 34 29  1  0
 45 40  1  0
M  END
>  <Title>  (40) 
idAAIBgen6

$$$$

     RDKit          2D

 77 83  0  0  0  0  0  0  0  0999 V2000
    4.4935    2.3698    0.0000 C   0  0  0  0  0  0  0  0  0  0  0  0
    3.2954    1.4672    0.0000 C   0  0  0  0  0  0  0  0  0  0  0  0
    4.7726    1.2067    0.0000 C   0  0  0  0  0  0  0  0  0  0  0  0
    5.7368    2.3558    0.0000 C   0  0  0  0  0  0  0  0  0  0  0  0
    7.2140    2.0953    0.0000 C   0  0  0  0  0  0  0  0  0  0  0  0
    8.1782    3.2444    0.0000 C   0  0  0  0  0  0  0  0  0  0  0  0
    8.0215    4.7362    0.0000 O   0  0  0  0  0  0  0  0  0  0  0  0
    9.6554    2.9839    0.0000 C   0  0  0  0  0  0  0  0  0  0  0  0
    9.6032    1.4848    0.0000 O   0  0  0  0  0  0  0  0  0  0  0  0
   11.0462    2.4220    0.0000 C   0  0  0  0  0  0  0  0  0  0  0  0
   12.0104    3.5711    0.0000 C   0  0  0  0  0  0  0  0  0  0  0  0
   11.2155    4.8432    0.0000 C   0  0  0  0  0  0  0  0  0  0  0  0
    9.7601    4.4803    0.0000 C   0  0  0  0  0  0  0  0  0  0  0  0
    5.2238    3.7654    0.0000 C   0  0  0  0  0  0  0  0  0  0  0  0
    4.4956    4.0896    0.0000 O   0  0  0  0  0  0  0  0  0  0  0  0
    6.1880    4.9144    0.0000 C   0  0  0  0  0  0  0  0  0  0  0  0
    5.5070    6.2509    0.0000 O   0  0  0  0  0  0  0  0  0  0  0  0
    3.6073    0.0000    0.0000 C   0  0  0  0  0  0  0  0  0  0  0  0
    3.2954   -1.4672    0.0000 C   0  0  0  0  0  0  0  0  0  0  0  0
    2.4138   -2.6807    0.0000 C   0  0  0  0  0  0  0  0  0  0  0  0
    1.1147   -3.4307    0.0000 C   0  0  0  0  0  0  0  0  0  0  0  0
   -0.3771   -3.5875    0.0000 C   0  0  0  0  0  0  0  0  0  0  0  0
   -1.8037   -3.1240    0.0000 C   0  0  0  0  0  0  0  0  0  0  0  0
   -2.9184   -2.1203    0.0000 C   0  0  0  0  0  0  0  0  0  0  0  0
   -3.5285   -0.7500    0.0000 C   0  0  0  0  0  0  0  0  0  0  0  0
   -3.5285    0.7500    0.0000 C   0  0  0  0  0  0  0  0  0  0  0  0
   -2.9184    2.1203    0.0000 C   0  0  0  0  0  0  0  0  0  0  0  0
   -1.8037    3.1240    0.0000 C   0  0  0  0  0  0  0  0  0  0  0  0
   -0.3771    3.5875    0.0000 C   0  0  0  0  0  0  0  0  0  0  0  0
    1.1147    3.4307    0.0000 C   0  0  0  0  0  0  0  0  0  0  0  0
    2.4138    2.6807    0.0000 C   0  0  0  0  0  0  0  0  0  0  0  0
    3.8692    3.0436    0.0000 C   0  0  0  0  0  0  0  0  0  0  0  0
    4.1807    3.7774    0.0000 O   0  0  0  0  0  0  0  0  0  0  0  0
    4.9112    1.9646    0.0000 N   0  0  0  0  0  0  0  0  0  0  0  0
    6.3666    2.3275    0.0000 C   0  0  0  0  0  0  0  0  0  0  0  0
    7.4086    1.2485    0.0000 C   0  0  0  0  0  0  0  0  0  0  0  0
    8.8641    1.6114    0.0000 C   0  0  0  0  0  0  0  0  0  0  0  0
    9.9060    0.5324    0.0000 C   0  0  0  0  0  0  0  0  0  0  0  0
   11.3615    0.8952    0.0000 C   0  0  0  0  0  0  0  0  0  0  0  0
   11.7749    2.3371    0.0000 C   0  0  0  0  0  0  0  0  0  0  0  0
   10.7330    3.4162    0.0000 C   0  0  0  0  0  0  0  0  0  0  0  0
    9.2775    3.0533    0.0000 C   0  0  0  0  0  0  0  0  0  0  0  0
    6.7801    3.7694    0.0000 C   0  0  0  0  0  0  0  0  0  0  0  0
    6.0302    5.0685    0.0000 O   0  0  0  0  0  0  0  0  0  0  0  0
    8.2355    4.1323    0.0000 N   0  0  0  0  0  0  0  0  0  0  0  0
    8.6490    5.5742    0.0000 C   0  0  0  0  0  0  0  0  0  0  0  0
   10.1044    5.9371    0.0000 C   0  0  0  0  0  0  0  0  0  0  0  0
   10.5179    7.3789    0.0000 C   0  0  0  0  0  0  0  0  0  0  0  0
   11.9733    7.7418    0.0000 C   0  0  0  0  0  0  0  0  0  0  0  0
   12.3868    9.1837    0.0000 C   0  0  0  0  0  0  0  0  0  0  0  0
   11.3448   10.2627    0.0000 C   0  0  0  0  0  0  0  0  0  0  0  0
    9.8894    9.8998    0.0000 C   0  0  0  0  0  0  0  0  0  0  0  0
    9.4759    8.4580    0.0000 C   0  0  0  0  0  0  0  0  0  0  0  0
    7.6070    6.6532    0.0000 C   0  0  0  0  0  0  0  0  0  0  0  0
    6.1182    6.4704    0.0000 O   0  0  0  0  0  0  0  0  0  0  0  0
    8.0205    8.0951    0.0000 O   0  0  0  0  0  0  0  0  0  0  0  0
    2.6225    4.1661    0.0000 C   0  0  0  0  0  0  0  0  0  0  0  0
    4.0133    4.7281    0.0000 C   0  0  0  0  0  0  0  0  0  0  0  0
    4.2221    6.2135    0.0000 C   0  0  0  0  0  0  0  0  0  0  0  0
    3.0400    7.1370    0.0000 C   0  0  0  0  0  0  0  0  0  0  0  0
    1.6493    6.5750    0.0000 C   0  0  0  0  0  0  0  0  0  0  0  0
    1.4405    5.0896    0.0000 C   0  0  0  0  0  0  0  0  0  0  0  0
    2.8313    5.6516    0.0000 C   0  0  0  0  0  0  0  0  0  0  0  0
    2.6225    4.1661    0.0000 C   0  0  0  0  0  0  0  0  0  0  0  0
    3.9929    3.5561    0.0000 O   0  0  0  0  0  0  0  0  0  0  0  0
    1.2317    3.6042    0.0000 N   0  0  0  0  0  0  0  0  0  0  0  0
    1.0230    2.1188    0.0000 C   0  0  0  0  0  0  0  0  0  0  0  0
   -0.3678    1.5569    0.0000 C   0  0  0  0  0  0  0  0  0  0  0  0
   -0.5766    0.0715    0.0000 C   0  0  0  0  0  0  0  0  0  0  0  0
   -1.9673   -0.4904    0.0000 C   0  0  0  0  0  0  0  0  0  0  0  0
   -2.1761   -1.9758    0.0000 C   0  0  0  0  0  0  0  0  0  0  0  0
   -0.9941   -2.8993    0.0000 C   0  0  0  0  0  0  0  0  0  0  0  0
    0.3967   -2.3374    0.0000 C   0  0  0  0  0  0  0  0  0  0  0  0
    0.6055   -0.8520    0.0000 C   0  0  0  0  0  0  0  0  0  0  0  0
    2.2050    1.1953    0.0000 C   0  0  0  0  0  0  0  0  0  0  0  0
    3.6904    1.4040    0.0000 O   0  0  0  0  0  0  0  0  0  0  0  0
    1.9962   -0.2901    0.0000 O   0  0  0  0  0  0  0  0  0  0  0  0
  1  2  1  0
  2  3  1  0
  3  4  1  0
  4  5  1  0
  5  6  1  0
  6  7  1  0
  6  8  1  0
  8  9  1  0
  8 10  1  0
 10 11  1  0
 11 12  1  0
 12 13  1  0
  4 14  1  0
 14 15  1  0
 14 16  1  0
 16 17  1  0
  2 18  1  0
 18 19  1  0
 19 20  1  0
 20 21  1  0
 21 22  1  0
 22 23  1  0
 23 24  1  0
 24 25  1  0
 25 26  1  0
 26 27  1  0
 27 28  1  0
 28 29  1  0
 29 30  1  0
 30 31  1  0
 31 32  1  0
 32 33  2  0
 32 34  1  0
 34 35  1  0
 35 36  1  0
 36 37  1  0
 37 38  2  0
 38 39  1  0
 39 40  2  0
 40 41  1  0
 41 42  2  0
 35 43  1  0
 43 44  2  0
 43 45  1  0
 45 46  1  0
 46 47  1  0
 47 48  1  0
 48 49  2  0
 49 50  1  0
 50 51  2  0
 51 52  1  0
 52 53  2  0
 46 54  1  0
 54 55  2  0
 54 56  1  0
 31 57  1  0
 57 58  1  0
 58 59  1  0
 59 60  1  0
 60 61  1  0
 61 62  1  0
 61 63  1  0
 63 64  1  0
 64 65  2  0
 64 66  1  0
 66 67  1  0
 67 68  1  0
 68 69  1  0
 69 70  2  0
 70 71  1  0
 71 72  2  0
 72 73  1  0
 73 74  2  0
 67 75  1  0
 75 76  2  0
 75 77  1  0
 31  2  1  0
 42 37  1  0
 53 48  1  0
 62 57  1  0
 74 69  1  0
 13  8  1  0
 63 59  1  0
M  END
>  <Title>  (41) 
idAAICgen6

$$$$

     RDKit          2D

 45 47  0  0  0  0  0  0  0  0999 V2000
    4.7797   -0.4800    0.0000 C   0  0  0  0  0  0  0  0  0  0  0  0
    3.3348   -0.0770    0.0000 C   0  0  0  0  0  0  0  0  0  0  0  0
    1.8900    0.3260    0.0000 C   0  0  0  0  0  0  0  0  0  0  0  0
    3.2934   -1.5764    0.0000 C   0  0  0  0  0  0  0  0  0  0  0  0
    3.7378    1.3679    0.0000 C   0  0  0  0  0  0  0  0  0  0  0  0
    2.2395    1.4392    0.0000 C   0  0  0  0  0  0  0  0  0  0  0  0
    2.7970    2.8318    0.0000 C   0  0  0  0  0  0  0  0  0  0  0  0
    4.1895    2.2743    0.0000 C   0  0  0  0  0  0  0  0  0  0  0  0
    1.4044    3.3893    0.0000 C   0  0  0  0  0  0  0  0  0  0  0  0
    3.3545    4.2243    0.0000 C   0  0  0  0  0  0  0  0  0  0  0  0
    2.6621    0.0000    0.0000 C   0  0  0  0  0  0  0  0  0  0  0  0
    2.2395   -1.4392    0.0000 C   0  0  0  0  0  0  0  0  0  0  0  0
    1.1059   -2.4215    0.0000 C   0  0  0  0  0  0  0  0  0  0  0  0
   -0.3789   -2.6350    0.0000 C   0  0  0  0  0  0  0  0  0  0  0  0
   -1.7433   -2.0119    0.0000 C   0  0  0  0  0  0  0  0  0  0  0  0
   -2.5543   -0.7500    0.0000 C   0  0  0  0  0  0  0  0  0  0  0  0
   -2.5543    0.7500    0.0000 C   0  0  0  0  0  0  0  0  0  0  0  0
   -1.7433    2.0119    0.0000 C   0  0  0  0  0  0  0  0  0  0  0  0
   -0.3789    2.6350    0.0000 C   0  0  0  0  0  0  0  0  0  0  0  0
    1.1059    2.4215    0.0000 C   0  0  0  0  0  0  0  0  0  0  0  0
    0.8220    3.8944    0.0000 C   0  0  0  0  0  0  0  0  0  0  0  0
    2.4049    3.1715    0.0000 C   0  0  0  0  0  0  0  0  0  0  0  0
    2.4049    4.6715    0.0000 C   0  0  0  0  0  0  0  0  0  0  0  0
    3.7040    5.4215    0.0000 C   0  0  0  0  0  0  0  0  0  0  0  0
    3.7040    6.9215    0.0000 C   0  0  0  0  0  0  0  0  0  0  0  0
    2.4049    7.6715    0.0000 O   0  0  0  0  0  0  0  0  0  0  0  0
    5.0030    7.6715    0.0000 C   0  0  0  0  0  0  0  0  0  0  0  0
    5.6131    6.3012    0.0000 O   0  0  0  0  0  0  0  0  0  0  0  0
    6.4296    8.1351    0.0000 C   0  0  0  0  0  0  0  0  0  0  0  0
    6.4296    9.6351    0.0000 C   0  0  0  0  0  0  0  0  0  0  0  0
    5.0030   10.0986    0.0000 C   0  0  0  0  0  0  0  0  0  0  0  0
    4.1213    8.8851    0.0000 C   0  0  0  0  0  0  0  0  0  0  0  0
    1.1059    5.4215    0.0000 C   0  0  0  0  0  0  0  0  0  0  0  0
   -0.1932    4.6715    0.0000 O   0  0  0  0  0  0  0  0  0  0  0  0
    1.1059    6.9215    0.0000 C   0  0  0  0  0  0  0  0  0  0  0  0
   -0.1932    7.6715    0.0000 O   0  0  0  0  0  0  0  0  0  0  0  0
    5.0568    0.6535    0.0000 C   0  0  0  0  0  0  0  0  0  0  0  0
    6.4376    1.2393    0.0000 C   0  0  0  0  0  0  0  0  0  0  0  0
    7.5646    0.2493    0.0000 O   0  0  0  0  0  0  0  0  0  0  0  0
    6.8406    2.6841    0.0000 C   0  0  0  0  0  0  0  0  0  0  0  0
    5.9623    3.9000    0.0000 C   0  0  0  0  0  0  0  0  0  0  0  0
    4.4640    3.9714    0.0000 C   0  0  0  0  0  0  0  0  0  0  0  0
    3.4740    2.8445    0.0000 C   0  0  0  0  0  0  0  0  0  0  0  0
    2.9159    4.2368    0.0000 C   0  0  0  0  0  0  0  0  0  0  0  0
    2.0931    2.2587    0.0000 C   0  0  0  0  0  0  0  0  0  0  0  0
  1  2  1  0
  2  3  1  0
  2  4  1  0
  2  5  1  0
  5  6  1  0
  6  7  1  0
  7  8  1  0
  7  9  1  0
  7 10  1  0
  6 11  1  0
 11 12  1  0
 12 13  1  0
 13 14  1  0
 14 15  1  0
 15 16  1  0
 16 17  1  0
 17 18  1  0
 18 19  1  0
 19 20  1  0
 20 21  1  0
 20 22  1  0
 22 23  1  0
 23 24  1  0
 24 25  1  0
 25 26  1  0
 25 27  1  0
 27 28  1  0
 27 29  1  0
 29 30  1  0
 30 31  1  0
 31 32  1  0
 23 33  1  0
 33 34  1  0
 33 35  1  0
 35 36  1  0
  5 37  1  0
 37 38  1  0
 38 39  1  0
 38 40  1  0
 40 41  1  0
 41 42  1  0
 42 43  1  0
 43 44  1  0
 43 45  1  0
 43  5  1  0
 20  6  1  0
 32 27  1  0
M  END
>  <Title>  (42) 
idAAIDgen6

$$$$

     RDKit          2D

 53 57  0  0  0  0  0  0  0  0999 V2000
    3.0000    6.6962    0.0000 C   0  0  0  0  0  0  0  0  0  0  0  0
    3.0000    5.1962    0.0000 C   0  0  0  0  0  0  0  0  0  0  0  0
    3.0000    3.6962    0.0000 C   0  0  0  0  0  0  0  0  0  0  0  0
    4.5000    5.1962    0.0000 C   0  0  0  0  0  0  0  0  0  0  0  0
    1.5000    5.1962    0.0000 N   0  0  0  0  0  0  0  0  0  0  0  0
    0.7500    6.4952    0.0000 C   0  0  0  0  0  0  0  0  0  0  0  0
   -0.7500    6.4952    0.0000 C   0  0  0  0  0  0  0  0  0  0  0  0
   -1.5000    5.1962    0.0000 C   0  0  0  0  0  0  0  0  0  0  0  0
   -3.0000    5.1962    0.0000 C   0  0  0  0  0  0  0  0  0  0  0  0
   -3.7500    3.8971    0.0000 C   0  0  0  0  0  0  0  0  0  0  0  0
   -3.0000    2.5981    0.0000 O   0  0  0  0  0  0  0  0  0  0  0  0
   -5.2500    3.8971    0.0000 C   0  0  0  0  0  0  0  0  0  0  0  0
   -5.0932    5.3889    0.0000 O   0  0  0  0  0  0  0  0  0  0  0  0
   -6.7172    4.2090    0.0000 C   0  0  0  0  0  0  0  0  0  0  0  0
   -7.4672    2.9099    0.0000 C   0  0  0  0  0  0  0  0  0  0  0  0
   -6.4635    1.7952    0.0000 C   0  0  0  0  0  0  0  0  0  0  0  0
   -5.0932    2.4053    0.0000 C   0  0  0  0  0  0  0  0  0  0  0  0
   -0.7500    3.8971    0.0000 C   0  0  0  0  0  0  0  0  0  0  0  0
    0.7500    3.8971    0.0000 C   0  0  0  0  0  0  0  0  0  0  0  0
    1.5000    2.5981    0.0000 C   0  0  0  0  0  0  0  0  0  0  0  0
    3.0000    2.5981    0.0000 C   0  0  0  0  0  0  0  0  0  0  0  0
    3.7500    3.8971    0.0000 C   0  0  0  0  0  0  0  0  0  0  0  0
    5.2500    3.8971    0.0000 C   0  0  0  0  0  0  0  0  0  0  0  0
    6.0000    2.5981    0.0000 C   0  0  0  0  0  0  0  0  0  0  0  0
    7.5000    2.5981    0.0000 C   0  0  0  0  0  0  0  0  0  0  0  0
    8.2500    3.8971    0.0000 C   0  0  0  0  0  0  0  0  0  0  0  0
    7.5000    5.1962    0.0000 C   0  0  0  0  0  0  0  0  0  0  0  0
    6.0000    5.1962    0.0000 C   0  0  0  0  0  0  0  0  0  0  0  0
    3.7500    1.2990    0.0000 C   0  0  0  0  0  0  0  0  0  0  0  0
    5.2500    1.2990    0.0000 O   0  0  0  0  0  0  0  0  0  0  0  0
    3.0000   -0.0000    0.0000 N   0  0  0  0  0  0  0  0  0  0  0  0
    3.7500   -1.2990    0.0000 C   0  0  0  0  0  0  0  0  0  0  0  0
    3.0000   -2.5981    0.0000 C   0  0  0  0  0  0  0  0  0  0  0  0
    3.7500   -3.8971    0.0000 C   0  0  0  0  0  0  0  0  0  0  0  0
    5.2500   -3.8971    0.0000 C   0  0  0  0  0  0  0  0  0  0  0  0
    6.0000   -5.1962    0.0000 C   0  0  0  0  0  0  0  0  0  0  0  0
    5.2500   -6.4952    0.0000 C   0  0  0  0  0  0  0  0  0  0  0  0
    3.7500   -6.4952    0.0000 C   0  0  0  0  0  0  0  0  0  0  0  0
    3.0000   -5.1962    0.0000 C   0  0  0  0  0  0  0  0  0  0  0  0
    5.2500   -1.2990    0.0000 C   0  0  0  0  0  0  0  0  0  0  0  0
    6.0000   -0.0000    0.0000 O   0  0  0  0  0  0  0  0  0  0  0  0
    6.0000   -2.5981    0.0000 N   0  0  0  0  0  0  0  0  0  0  0  0
    7.5000   -2.5981    0.0000 C   0  0  0  0  0  0  0  0  0  0  0  0
    8.2500   -3.8971    0.0000 C   0  0  0  0  0  0  0  0  0  0  0  0
    9.7500   -3.8971    0.0000 C   0  0  0  0  0  0  0  0  0  0  0  0
   10.5000   -2.5981    0.0000 C   0  0  0  0  0  0  0  0  0  0  0  0
   12.0000   -2.5981    0.0000 C   0  0  0  0  0  0  0  0  0  0  0  0
   12.7500   -3.8971    0.0000 C   0  0  0  0  0  0  0  0  0  0  0  0
   12.0000   -5.1962    0.0000 C   0  0  0  0  0  0  0  0  0  0  0  0
   10.5000   -5.1962    0.0000 C   0  0  0  0  0  0  0  0  0  0  0  0
    8.2500   -1.2990    0.0000 C   0  0  0  0  0  0  0  0  0  0  0  0
    7.5000   -0.0000    0.0000 O   0  0  0  0  0  0  0  0  0  0  0  0
    9.7500   -1.2990    0.0000 O   0  0  0  0  0  0  0  0  0  0  0  0
  1  2  1  0
  2  3  1  0
  2  4  1  0
  2  5  1  0
  5  6  1  0
  6  7  1  0
  7  8  1  0
  8  9  1  0
  9 10  1  0
 10 11  1  0
 10 12  1  0
 12 13  1  0
 12 14  1  0
 14 15  1  0
 15 16  1  0
 16 17  1  0
  8 18  1  0
 18 19  1  0
 19 20  1  0
 20 21  1  0
 21 22  1  0
 22 23  1  0
 23 24  2  0
 24 25  1  0
 25 26  2  0
 26 27  1  0
 27 28  2  0
 21 29  1  0
 29 30  2  0
 29 31  1  0
 31 32  1  0
 32 33  1  0
 33 34  1  0
 34 35  2  0
 35 36  1  0
 36 37  2  0
 37 38  1  0
 38 39  2  0
 32 40  1  0
 40 41  2  0
 40 42  1  0
 42 43  1  0
 43 44  1  0
 44 45  1  0
 45 46  2  0
 46 47  1  0
 47 48  2  0
 48 49  1  0
 49 50  2  0
 43 51  1  0
 51 52  2  0
 51 53  1  0
 19  5  1  0
 28 23  1  0
 39 34  1  0
 50 45  1  0
 17 12  1  0
M  END
>  <Title>  (43) 
idAAIEgen6

$$$$

     RDKit          2D

 67 74  0  0  0  0  0  0  0  0999 V2000
    2.2844    2.1766    0.0000 C   0  0  0  0  0  0  0  0  0  0  0  0
    0.8578    2.6401    0.0000 C   0  0  0  0  0  0  0  0  0  0  0  0
   -0.0695    3.2196    0.0000 C   0  0  0  0  0  0  0  0  0  0  0  0
    1.3213    4.0667    0.0000 C   0  0  0  0  0  0  0  0  0  0  0  0
    0.3943    1.2135    0.0000 C   0  0  0  0  0  0  0  0  0  0  0  0
    1.2760    0.0000    0.0000 C   0  0  0  0  0  0  0  0  0  0  0  0
    0.3943   -1.2135    0.0000 C   0  0  0  0  0  0  0  0  0  0  0  0
   -1.0323   -0.7500    0.0000 C   0  0  0  0  0  0  0  0  0  0  0  0
   -2.3463   -0.0067    0.0000 C   0  0  0  0  0  0  0  0  0  0  0  0
   -2.1895    1.4851    0.0000 C   0  0  0  0  0  0  0  0  0  0  0  0
   -3.4031    2.3668    0.0000 C   0  0  0  0  0  0  0  0  0  0  0  0
   -2.3241    3.4088    0.0000 C   0  0  0  0  0  0  0  0  0  0  0  0
   -2.5328    4.8942    0.0000 C   0  0  0  0  0  0  0  0  0  0  0  0
   -1.1846    5.5517    0.0000 C   0  0  0  0  0  0  0  0  0  0  0  0
   -0.1426    4.4727    0.0000 C   0  0  0  0  0  0  0  0  0  0  0  0
   -0.8468    3.1483    0.0000 C   0  0  0  0  0  0  0  0  0  0  0  0
   -4.0606    1.0186    0.0000 C   0  0  0  0  0  0  0  0  0  0  0  0
   -5.5570    0.9140    0.0000 C   0  0  0  0  0  0  0  0  0  0  0  0
   -6.3958    2.1575    0.0000 C   0  0  0  0  0  0  0  0  0  0  0  0
   -7.8223    1.6939    0.0000 O   0  0  0  0  0  0  0  0  0  0  0  0
   -5.7382    3.5057    0.0000 N   0  0  0  0  0  0  0  0  0  0  0  0
   -4.2419    3.6103    0.0000 C   0  0  0  0  0  0  0  0  0  0  0  0
   -3.5843    4.9585    0.0000 C   0  0  0  0  0  0  0  0  0  0  0  0
   -4.4231    6.2021    0.0000 C   0  0  0  0  0  0  0  0  0  0  0  0
   -3.7655    7.5503    0.0000 C   0  0  0  0  0  0  0  0  0  0  0  0
   -4.6043    8.7938    0.0000 C   0  0  0  0  0  0  0  0  0  0  0  0
   -6.1007    8.6892    0.0000 C   0  0  0  0  0  0  0  0  0  0  0  0
   -6.7582    7.3410    0.0000 C   0  0  0  0  0  0  0  0  0  0  0  0
   -5.9194    6.0974    0.0000 C   0  0  0  0  0  0  0  0  0  0  0  0
   -0.8192    2.0952    0.0000 C   0  0  0  0  0  0  0  0  0  0  0  0
   -1.0323    0.7500    0.0000 C   0  0  0  0  0  0  0  0  0  0  0  0
   -2.2458    1.6317    0.0000 C   0  0  0  0  0  0  0  0  0  0  0  0
   -3.4278    0.7081    0.0000 O   0  0  0  0  0  0  0  0  0  0  0  0
   -2.0890    3.1235    0.0000 N   0  0  0  0  0  0  0  0  0  0  0  0
   -3.3025    4.0051    0.0000 C   0  0  0  0  0  0  0  0  0  0  0  0
   -3.1458    5.4969    0.0000 C   0  0  0  0  0  0  0  0  0  0  0  0
   -4.3593    6.3786    0.0000 C   0  0  0  0  0  0  0  0  0  0  0  0
   -4.2025    7.8704    0.0000 C   0  0  0  0  0  0  0  0  0  0  0  0
   -5.4160    8.7521    0.0000 C   0  0  0  0  0  0  0  0  0  0  0  0
   -6.7863    8.1420    0.0000 C   0  0  0  0  0  0  0  0  0  0  0  0
   -6.9431    6.6502    0.0000 C   0  0  0  0  0  0  0  0  0  0  0  0
   -5.7296    5.7685    0.0000 C   0  0  0  0  0  0  0  0  0  0  0  0
   -4.6729    3.3950    0.0000 C   0  0  0  0  0  0  0  0  0  0  0  0
   -4.8297    1.9033    0.0000 O   0  0  0  0  0  0  0  0  0  0  0  0
   -5.8864    4.2767    0.0000 N   0  0  0  0  0  0  0  0  0  0  0  0
   -7.2567    3.6666    0.0000 C   0  0  0  0  0  0  0  0  0  0  0  0
   -8.4702    4.5483    0.0000 C   0  0  0  0  0  0  0  0  0  0  0  0
   -9.8406    3.9382    0.0000 C   0  0  0  0  0  0  0  0  0  0  0  0
  -11.0541    4.8199    0.0000 C   0  0  0  0  0  0  0  0  0  0  0  0
  -12.4244    4.2098    0.0000 C   0  0  0  0  0  0  0  0  0  0  0  0
  -12.5812    2.7180    0.0000 C   0  0  0  0  0  0  0  0  0  0  0  0
  -11.3677    1.8363    0.0000 C   0  0  0  0  0  0  0  0  0  0  0  0
   -9.9973    2.4464    0.0000 C   0  0  0  0  0  0  0  0  0  0  0  0
   -7.4135    2.1748    0.0000 C   0  0  0  0  0  0  0  0  0  0  0  0
   -6.4494    1.0257    0.0000 O   0  0  0  0  0  0  0  0  0  0  0  0
   -8.7838    1.5647    0.0000 N   0  0  0  0  0  0  0  0  0  0  0  0
   -8.9406    0.0729    0.0000 C   0  0  0  0  0  0  0  0  0  0  0  0
  -10.3109   -0.5372    0.0000 C   0  0  0  0  0  0  0  0  0  0  0  0
  -10.4677   -2.0290    0.0000 C   0  0  0  0  0  0  0  0  0  0  0  0
  -11.8380   -2.6391    0.0000 C   0  0  0  0  0  0  0  0  0  0  0  0
  -11.9948   -4.1308    0.0000 C   0  0  0  0  0  0  0  0  0  0  0  0
  -10.7813   -5.0125    0.0000 C   0  0  0  0  0  0  0  0  0  0  0  0
   -9.4110   -4.4024    0.0000 C   0  0  0  0  0  0  0  0  0  0  0  0
   -9.2542   -2.9106    0.0000 C   0  0  0  0  0  0  0  0  0  0  0  0
   -7.7271   -0.8087    0.0000 C   0  0  0  0  0  0  0  0  0  0  0  0
   -6.3568   -0.1986    0.0000 O   0  0  0  0  0  0  0  0  0  0  0  0
   -7.8839   -2.3005    0.0000 O   0  0  0  0  0  0  0  0  0  0  0  0
  1  2  1  0
  2  3  1  0
  2  4  1  0
  2  5  1  0
  5  6  1  0
  6  7  1  0
  7  8  1  0
  8  9  1  0
  9 10  1  0
 10 11  1  0
 11 12  1  0
 12 13  1  0
 13 14  1  0
 14 15  1  0
 15 16  1  0
 11 17  1  0
 17 18  1  0
 18 19  1  0
 19 20  2  0
 19 21  1  0
 21 22  1  0
 22 23  1  0
 23 24  1  0
 24 25  1  0
 25 26  1  0
 26 27  1  0
 27 28  1  0
 28 29  1  0
 10 30  1  0
  8 31  1  0
 31 32  1  0
 32 33  2  0
 32 34  1  0
 34 35  1  0
 35 36  1  0
 36 37  1  0
 37 38  2  0
 38 39  1  0
 39 40  2  0
 40 41  1  0
 41 42  2  0
 35 43  1  0
 43 44  2  0
 43 45  1  0
 45 46  1  0
 46 47  1  0
 47 48  1  0
 48 49  2  0
 49 50  1  0
 50 51  2  0
 51 52  1  0
 52 53  2  0
 46 54  1  0
 54 55  2  0
 54 56  1  0
 56 57  1  0
 57 58  1  0
 58 59  1  0
 59 60  2  0
 60 61  1  0
 61 62  2  0
 62 63  1  0
 63 64  2  0
 57 65  1  0
 65 66  2  0
 65 67  1  0
 30  5  1  0
 42 37  1  0
 53 48  1  0
 64 59  1  0
 31  5  1  0
 22 11  1  0
 29 24  1  0
 16 12  1  0
M  END
>  <Title>  (44) 
idAAIFgen6

$$$$

     RDKit          2D

 22 22  0  0  0  0  0  0  0  0999 V2000
    5.9761   -0.5490    0.0000 C   0  0  0  0  0  0  0  0  0  0  0  0
    4.6771   -1.2990    0.0000 C   0  0  0  0  0  0  0  0  0  0  0  0
    3.3780   -2.0490    0.0000 C   0  0  0  0  0  0  0  0  0  0  0  0
    5.4271   -2.5981    0.0000 C   0  0  0  0  0  0  0  0  0  0  0  0
    3.9271    0.0000    0.0000 C   0  0  0  0  0  0  0  0  0  0  0  0
    2.4271    0.0000    0.0000 C   0  0  0  0  0  0  0  0  0  0  0  0
    1.9635   -1.4266    0.0000 C   0  0  0  0  0  0  0  0  0  0  0  0
    0.7500   -2.3083    0.0000 C   0  0  0  0  0  0  0  0  0  0  0  0
   -0.7500   -2.3083    0.0000 C   0  0  0  0  0  0  0  0  0  0  0  0
   -1.2135   -3.7348    0.0000 C   0  0  0  0  0  0  0  0  0  0  0  0
    0.2131   -4.1984    0.0000 C   0  0  0  0  0  0  0  0  0  0  0  0
   -2.5387   -3.4773    0.0000 C   0  0  0  0  0  0  0  0  0  0  0  0
   -1.6771   -5.1614    0.0000 C   0  0  0  0  0  0  0  0  0  0  0  0
   -1.9635   -1.4266    0.0000 C   0  0  0  0  0  0  0  0  0  0  0  0
   -2.5341   -2.6501    0.0000 C   0  0  0  0  0  0  0  0  0  0  0  0
   -3.4635   -1.4266    0.0000 C   0  0  0  0  0  0  0  0  0  0  0  0
   -2.4271    0.0000    0.0000 C   0  0  0  0  0  0  0  0  0  0  0  0
   -1.9635    1.4266    0.0000 C   0  0  0  0  0  0  0  0  0  0  0  0
   -0.7500    2.3083    0.0000 C   0  0  0  0  0  0  0  0  0  0  0  0
    0.7500    2.3083    0.0000 C   0  0  0  0  0  0  0  0  0  0  0  0
    1.2135    3.7348    0.0000 O   0  0  0  0  0  0  0  0  0  0  0  0
    1.9635    1.4266    0.0000 C   0  0  0  0  0  0  0  0  0  0  0  0
  1  2  1  0
  2  3  1  0
  2  4  1  0
  2  5  1  0
  5  6  1  0
  6  7  1  0
  7  8  1  0
  8  9  1  0
  9 10  1  0
 10 11  1  0
 10 12  1  0
 10 13  1  0
  9 14  1  0
 14 15  1  0
 14 16  1  0
 14 17  1  0
 17 18  1  0
 18 19  1  0
 19 20  1  0
 20 21  1  0
 20 22  1  0
 22  6  1  0
M  END
>  <Title>  (45) 
idAAIGgen6

$$$$

     RDKit          2D

 66 73  0  0  0  0  0  0  0  0999 V2000
    3.0000   -2.5981    0.0000 O   0  0  0  0  0  0  0  0  0  0  0  0
    1.5000   -2.5981    0.0000 C   0  0  0  0  0  0  0  0  0  0  0  0
    0.7500   -3.8971    0.0000 N   0  0  0  0  0  0  0  0  0  0  0  0
    1.5000   -5.1962    0.0000 C   0  0  0  0  0  0  0  0  0  0  0  0
    0.7500   -6.4952    0.0000 C   0  0  0  0  0  0  0  0  0  0  0  0
    1.5000   -7.7942    0.0000 C   0  0  0  0  0  0  0  0  0  0  0  0
    0.7500   -9.0933    0.0000 C   0  0  0  0  0  0  0  0  0  0  0  0
    1.5000  -10.3923    0.0000 C   0  0  0  0  0  0  0  0  0  0  0  0
    3.0000  -10.3923    0.0000 C   0  0  0  0  0  0  0  0  0  0  0  0
    3.7500   -9.0933    0.0000 C   0  0  0  0  0  0  0  0  0  0  0  0
    3.0000   -7.7942    0.0000 C   0  0  0  0  0  0  0  0  0  0  0  0
    3.0000   -5.1962    0.0000 C   0  0  0  0  0  0  0  0  0  0  0  0
    3.9028   -3.9982    0.0000 O   0  0  0  0  0  0  0  0  0  0  0  0
    3.7500   -6.4952    0.0000 N   0  0  0  0  0  0  0  0  0  0  0  0
    5.2500   -6.4952    0.0000 C   0  0  0  0  0  0  0  0  0  0  0  0
    6.0000   -7.7942    0.0000 C   0  0  0  0  0  0  0  0  0  0  0  0
    7.5000   -7.7942    0.0000 C   0  0  0  0  0  0  0  0  0  0  0  0
    8.2500   -9.0933    0.0000 C   0  0  0  0  0  0  0  0  0  0  0  0
    9.7500   -9.0933    0.0000 C   0  0  0  0  0  0  0  0  0  0  0  0
   10.5000   -7.7942    0.0000 C   0  0  0  0  0  0  0  0  0  0  0  0
    9.7500   -6.4952    0.0000 C   0  0  0  0  0  0  0  0  0  0  0  0
    8.2500   -6.4952    0.0000 C   0  0  0  0  0  0  0  0  0  0  0  0
    6.0000   -5.1962    0.0000 C   0  0  0  0  0  0  0  0  0  0  0  0
    5.2500   -3.8971    0.0000 O   0  0  0  0  0  0  0  0  0  0  0  0
    7.5000   -5.1962    0.0000 O   0  0  0  0  0  0  0  0  0  0  0  0
    0.7500   -1.2990    0.0000 C   0  0  0  0  0  0  0  0  0  0  0  0
    1.5000    0.0000    0.0000 C   0  0  0  0  0  0  0  0  0  0  0  0
    0.7500    1.2990    0.0000 C   0  0  0  0  0  0  0  0  0  0  0  0
   -0.7500    1.2990    0.0000 C   0  0  0  0  0  0  0  0  0  0  0  0
   -1.5000    0.0000    0.0000 C   0  0  0  0  0  0  0  0  0  0  0  0
   -0.7500   -1.2990    0.0000 C   0  0  0  0  0  0  0  0  0  0  0  0
   -0.0000   -0.0000    0.0000 C   0  0  0  0  0  0  0  0  0  0  0  0
    0.7500   -1.2990    0.0000 C   0  0  0  0  0  0  0  0  0  0  0  0
    2.2054   -0.9361    0.0000 O   0  0  0  0  0  0  0  0  0  0  0  0
   -0.0000   -2.5981    0.0000 C   0  0  0  0  0  0  0  0  0  0  0  0
    0.7500   -3.8971    0.0000 C   0  0  0  0  0  0  0  0  0  0  0  0
   -0.0000   -5.1962    0.0000 C   0  0  0  0  0  0  0  0  0  0  0  0
   -1.5000   -5.1962    0.0000 C   0  0  0  0  0  0  0  0  0  0  0  0
   -2.2500   -6.4952    0.0000 C   0  0  0  0  0  0  0  0  0  0  0  0
   -1.5000   -7.7942    0.0000 C   0  0  0  0  0  0  0  0  0  0  0  0
   -0.0000   -7.7942    0.0000 C   0  0  0  0  0  0  0  0  0  0  0  0
    0.7500   -6.4952    0.0000 C   0  0  0  0  0  0  0  0  0  0  0  0
   -1.5000   -2.5981    0.0000 N   0  0  0  0  0  0  0  0  0  0  0  0
   -2.2500   -3.8971    0.0000 C   0  0  0  0  0  0  0  0  0  0  0  0
   -1.8366   -5.3390    0.0000 O   0  0  0  0  0  0  0  0  0  0  0  0
   -3.7500   -3.8971    0.0000 C   0  0  0  0  0  0  0  0  0  0  0  0
   -4.5000   -5.1962    0.0000 C   0  0  0  0  0  0  0  0  0  0  0  0
   -3.0000   -5.1962    0.0000 C   0  0  0  0  0  0  0  0  0  0  0  0
   -2.2500   -3.8971    0.0000 C   0  0  0  0  0  0  0  0  0  0  0  0
   -0.7500   -3.8971    0.0000 N   0  0  0  0  0  0  0  0  0  0  0  0
   -0.0000   -2.5981    0.0000 C   0  0  0  0  0  0  0  0  0  0  0  0
   -0.4134   -1.1562    0.0000 O   0  0  0  0  0  0  0  0  0  0  0  0
    1.5000   -2.5981    0.0000 C   0  0  0  0  0  0  0  0  0  0  0  0
    2.2500   -1.2990    0.0000 C   0  0  0  0  0  0  0  0  0  0  0  0
    3.7500   -1.2990    0.0000 C   0  0  0  0  0  0  0  0  0  0  0  0
    4.5000   -2.5981    0.0000 C   0  0  0  0  0  0  0  0  0  0  0  0
    6.0000   -2.5981    0.0000 C   0  0  0  0  0  0  0  0  0  0  0  0
    6.7500   -1.2990    0.0000 C   0  0  0  0  0  0  0  0  0  0  0  0
    6.0000   -0.0000    0.0000 C   0  0  0  0  0  0  0  0  0  0  0  0
    4.5000   -0.0000    0.0000 C   0  0  0  0  0  0  0  0  0  0  0  0
    2.2500   -3.8971    0.0000 C   0  0  0  0  0  0  0  0  0  0  0  0
    1.8366   -5.3390    0.0000 O   0  0  0  0  0  0  0  0  0  0  0  0
    3.7388   -3.7143    0.0000 O   0  0  0  0  0  0  0  0  0  0  0  0
   -3.0000   -2.5981    0.0000 C   0  0  0  0  0  0  0  0  0  0  0  0
   -4.5000   -2.5981    0.0000 C   0  0  0  0  0  0  0  0  0  0  0  0
   -5.2500   -3.8971    0.0000 C   0  0  0  0  0  0  0  0  0  0  0  0
  1  2  2  0
  2  3  1  0
  3  4  1  0
  4  5  1  0
  5  6  1  0
  6  7  2  0
  7  8  1  0
  8  9  2  0
  9 10  1  0
 10 11  2  0
  4 12  1  0
 12 13  2  0
 12 14  1  0
 14 15  1  0
 15 16  1  0
 16 17  1  0
 17 18  2  0
 18 19  1  0
 19 20  2  0
 20 21  1  0
 21 22  2  0
 15 23  1  0
 23 24  2  0
 23 25  1  0
  2 26  1  0
 26 27  1  0
 27 28  1  0
 28 29  1  0
 29 30  1  0
 30 31  1  0
 30 32  1  0
 32 33  1  0
 33 34  2  0
 33 35  1  0
 35 36  1  0
 36 37  1  0
 37 38  2  0
 38 39  1  0
 39 40  2  0
 40 41  1  0
 41 42  2  0
 35 43  1  0
 43 44  1  0
 44 45  2  0
 44 46  1  0
 46 47  1  0
 47 48  1  0
 48 49  1  0
 49 50  1  0
 50 51  1  0
 51 52  2  0
 51 53  1  0
 53 54  1  0
 54 55  1  0
 55 56  2  0
 56 57  1  0
 57 58  2  0
 58 59  1  0
 59 60  2  0
 53 61  1  0
 61 62  2  0
 61 63  1  0
 49 64  1  0
 64 65  1  0
 65 66  1  0
 11  6  1  0
 22 17  1  0
 31 26  1  0
 42 37  1  0
 65 46  1  0
 32 28  1  0
 66 47  1  0
 60 55  1  0
M  END
>  <Title>  (46) 
idAAIHgen6

$$$$

     RDKit          2D

 56 61  0  0  0  0  0  0  0  0999 V2000
    4.5000   -2.5981    0.0000 O   0  0  0  0  0  0  0  0  0  0  0  0
    5.2500   -3.8971    0.0000 C   0  0  0  0  0  0  0  0  0  0  0  0
    6.7500   -3.8971    0.0000 O   0  0  0  0  0  0  0  0  0  0  0  0
    4.5000   -5.1962    0.0000 C   0  0  0  0  0  0  0  0  0  0  0  0
    5.2500   -6.4952    0.0000 C   0  0  0  0  0  0  0  0  0  0  0  0
    6.7500   -6.4952    0.0000 C   0  0  0  0  0  0  0  0  0  0  0  0
    7.5000   -7.7942    0.0000 C   0  0  0  0  0  0  0  0  0  0  0  0
    9.0000   -7.7942    0.0000 C   0  0  0  0  0  0  0  0  0  0  0  0
    9.7500   -6.4952    0.0000 C   0  0  0  0  0  0  0  0  0  0  0  0
    9.0000   -5.1962    0.0000 C   0  0  0  0  0  0  0  0  0  0  0  0
    7.5000   -5.1962    0.0000 C   0  0  0  0  0  0  0  0  0  0  0  0
    3.0000   -5.1962    0.0000 N   0  0  0  0  0  0  0  0  0  0  0  0
    2.2500   -3.8971    0.0000 C   0  0  0  0  0  0  0  0  0  0  0  0
    3.0000   -2.5981    0.0000 O   0  0  0  0  0  0  0  0  0  0  0  0
    0.7500   -3.8971    0.0000 C   0  0  0  0  0  0  0  0  0  0  0  0
   -0.0000   -5.1962    0.0000 C   0  0  0  0  0  0  0  0  0  0  0  0
    0.7500   -6.4952    0.0000 C   0  0  0  0  0  0  0  0  0  0  0  0
   -0.0000   -7.7942    0.0000 C   0  0  0  0  0  0  0  0  0  0  0  0
    0.7500   -9.0933    0.0000 C   0  0  0  0  0  0  0  0  0  0  0  0
    2.2500   -9.0933    0.0000 C   0  0  0  0  0  0  0  0  0  0  0  0
    3.0000   -7.7942    0.0000 C   0  0  0  0  0  0  0  0  0  0  0  0
    2.2500   -6.4952    0.0000 C   0  0  0  0  0  0  0  0  0  0  0  0
   -0.0000   -2.5981    0.0000 N   0  0  0  0  0  0  0  0  0  0  0  0
    0.7500   -1.2990    0.0000 C   0  0  0  0  0  0  0  0  0  0  0  0
    2.2500   -1.2990    0.0000 O   0  0  0  0  0  0  0  0  0  0  0  0
   -0.0000    0.0000    0.0000 C   0  0  0  0  0  0  0  0  0  0  0  0
   -1.5000    0.0000    0.0000 C   0  0  0  0  0  0  0  0  0  0  0  0
   -0.7500   -1.2990    0.0000 C   0  0  0  0  0  0  0  0  0  0  0  0
    0.7500   -1.2990    0.0000 C   0  0  0  0  0  0  0  0  0  0  0  0
    1.5000   -2.5981    0.0000 N   0  0  0  0  0  0  0  0  0  0  0  0
    0.7500   -3.8971    0.0000 C   0  0  0  0  0  0  0  0  0  0  0  0
   -0.7500   -3.8971    0.0000 O   0  0  0  0  0  0  0  0  0  0  0  0
    1.5000   -5.1962    0.0000 C   0  0  0  0  0  0  0  0  0  0  0  0
    0.7500   -6.4952    0.0000 C   0  0  0  0  0  0  0  0  0  0  0  0
    1.5000   -7.7942    0.0000 C   0  0  0  0  0  0  0  0  0  0  0  0
    0.7500   -9.0933    0.0000 C   0  0  0  0  0  0  0  0  0  0  0  0
    1.5000  -10.3923    0.0000 C   0  0  0  0  0  0  0  0  0  0  0  0
    3.0000  -10.3923    0.0000 C   0  0  0  0  0  0  0  0  0  0  0  0
    3.7500   -9.0933    0.0000 C   0  0  0  0  0  0  0  0  0  0  0  0
    3.0000   -7.7942    0.0000 C   0  0  0  0  0  0  0  0  0  0  0  0
    3.0000   -5.1962    0.0000 C   0  0  0  0  0  0  0  0  0  0  0  0
    3.7500   -3.8971    0.0000 O   0  0  0  0  0  0  0  0  0  0  0  0
    3.7500   -6.4952    0.0000 N   0  0  0  0  0  0  0  0  0  0  0  0
    5.2500   -6.4952    0.0000 C   0  0  0  0  0  0  0  0  0  0  0  0
    6.0000   -5.1962    0.0000 C   0  0  0  0  0  0  0  0  0  0  0  0
    5.5866   -3.7542    0.0000 O   0  0  0  0  0  0  0  0  0  0  0  0
    7.4554   -4.8332    0.0000 O   0  0  0  0  0  0  0  0  0  0  0  0
    6.0000   -7.7942    0.0000 C   0  0  0  0  0  0  0  0  0  0  0  0
    5.2500   -9.0933    0.0000 C   0  0  0  0  0  0  0  0  0  0  0  0
    6.0000  -10.3923    0.0000 C   0  0  0  0  0  0  0  0  0  0  0  0
    7.5000  -10.3923    0.0000 C   0  0  0  0  0  0  0  0  0  0  0  0
    8.2500   -9.0933    0.0000 C   0  0  0  0  0  0  0  0  0  0  0  0
    7.5000   -7.7942    0.0000 C   0  0  0  0  0  0  0  0  0  0  0  0
    1.5000    0.0000    0.0000 C   0  0  0  0  0  0  0  0  0  0  0  0
    0.7500    1.2990    0.0000 C   0  0  0  0  0  0  0  0  0  0  0  0
   -0.7500    1.2990    0.0000 C   0  0  0  0  0  0  0  0  0  0  0  0
  1  2  2  0
  2  3  1  0
  2  4  1  0
  4  5  1  0
  5  6  1  0
  6  7  2  0
  7  8  1  0
  8  9  2  0
  9 10  1  0
 10 11  2  0
  4 12  1  0
 12 13  1  0
 13 14  2  0
 13 15  1  0
 15 16  1  0
 16 17  1  0
 17 18  2  0
 18 19  1  0
 19 20  2  0
 20 21  1  0
 21 22  2  0
 15 23  1  0
 23 24  1  0
 24 25  2  0
 24 26  1  0
 26 27  1  0
 27 28  1  0
 28 29  1  0
 29 30  1  0
 30 31  1  0
 31 32  2  0
 31 33  1  0
 33 34  1  0
 34 35  1  0
 35 36  2  0
 36 37  1  0
 37 38  2  0
 38 39  1  0
 39 40  2  0
 33 41  1  0
 41 42  2  0
 41 43  1  0
 43 44  1  0
 44 45  1  0
 45 46  2  0
 45 47  1  0
 44 48  1  0
 48 49  2  0
 49 50  1  0
 50 51  2  0
 51 52  1  0
 52 53  2  0
 29 54  1  0
 54 55  1  0
 55 56  1  0
 11  6  1  0
 22 17  1  0
 55 26  1  0
 56 27  1  0
 40 35  1  0
 53 48  1  0
M  END
>  <Title>  (47) 
idAAIIgen6

$$$$

     RDKit          2D

 35 38  0  0  0  0  0  0  0  0999 V2000
   -0.0511    8.1825    0.0000 C   0  0  0  0  0  0  0  0  0  0  0  0
    0.6989    6.8834    0.0000 C   0  0  0  0  0  0  0  0  0  0  0  0
   -0.0511    5.5844    0.0000 O   0  0  0  0  0  0  0  0  0  0  0  0
    2.1989    6.8834    0.0000 C   0  0  0  0  0  0  0  0  0  0  0  0
    2.9489    8.1825    0.0000 C   0  0  0  0  0  0  0  0  0  0  0  0
    2.1989    9.4815    0.0000 C   0  0  0  0  0  0  0  0  0  0  0  0
    2.9489   10.7805    0.0000 C   0  0  0  0  0  0  0  0  0  0  0  0
    2.1989   12.0796    0.0000 C   0  0  0  0  0  0  0  0  0  0  0  0
    0.6989   12.0796    0.0000 C   0  0  0  0  0  0  0  0  0  0  0  0
   -0.0511   10.7805    0.0000 C   0  0  0  0  0  0  0  0  0  0  0  0
    0.6989    9.4815    0.0000 C   0  0  0  0  0  0  0  0  0  0  0  0
    2.9489    5.5844    0.0000 N   0  0  0  0  0  0  0  0  0  0  0  0
    2.1989    4.2853    0.0000 C   0  0  0  0  0  0  0  0  0  0  0  0
    0.7101    4.4682    0.0000 O   0  0  0  0  0  0  0  0  0  0  0  0
    2.9489    2.9863    0.0000 C   0  0  0  0  0  0  0  0  0  0  0  0
    4.4489    2.9863    0.0000 C   0  0  0  0  0  0  0  0  0  0  0  0
    5.1989    4.2853    0.0000 C   0  0  0  0  0  0  0  0  0  0  0  0
    6.6989    4.2853    0.0000 C   0  0  0  0  0  0  0  0  0  0  0  0
    7.4489    5.5844    0.0000 C   0  0  0  0  0  0  0  0  0  0  0  0
    6.6989    6.8834    0.0000 C   0  0  0  0  0  0  0  0  0  0  0  0
    5.1989    6.8834    0.0000 C   0  0  0  0  0  0  0  0  0  0  0  0
    4.4489    5.5844    0.0000 C   0  0  0  0  0  0  0  0  0  0  0  0
    2.1989    1.6873    0.0000 N   0  0  0  0  0  0  0  0  0  0  0  0
    0.6989    1.6873    0.0000 C   0  0  0  0  0  0  0  0  0  0  0  0
   -0.0511    2.9863    0.0000 O   0  0  0  0  0  0  0  0  0  0  0  0
   -0.0511    0.3882    0.0000 C   0  0  0  0  0  0  0  0  0  0  0  0
   -1.5000    0.0000    0.0000 C   0  0  0  0  0  0  0  0  0  0  0  0
   -0.7500   -1.2990    0.0000 C   0  0  0  0  0  0  0  0  0  0  0  0
    0.7500   -1.2990    0.0000 C   0  0  0  0  0  0  0  0  0  0  0  0
    1.5000    0.0000    0.0000 C   0  0  0  0  0  0  0  0  0  0  0  0
    0.7500    1.2990    0.0000 C   0  0  0  0  0  0  0  0  0  0  0  0
    1.5000    2.5981    0.0000 N   0  0  0  0  0  0  0  0  0  0  0  0
    2.9554    2.9610    0.0000 C   0  0  0  0  0  0  0  0  0  0  0  0
    0.5972    3.7960    0.0000 C   0  0  0  0  0  0  0  0  0  0  0  0
   -0.7500    1.2990    0.0000 C   0  0  0  0  0  0  0  0  0  0  0  0
  1  2  1  0
  2  3  1  0
  2  4  1  0
  4  5  1  0
  5  6  1  0
  6  7  2  0
  7  8  1  0
  8  9  2  0
  9 10  1  0
 10 11  2  0
  4 12  1  0
 12 13  1  0
 13 14  2  0
 13 15  1  0
 15 16  1  0
 16 17  1  0
 17 18  2  0
 18 19  1  0
 19 20  2  0
 20 21  1  0
 21 22  2  0
 15 23  1  0
 23 24  1  0
 24 25  2  0
 24 26  1  0
 26 27  1  0
 27 28  1  0
 28 29  1  0
 29 30  1  0
 30 31  1  0
 31 32  1  0
 32 33  1  0
 32 34  1  0
 31 35  1  0
 11  6  1  0
 22 17  1  0
 29 26  1  0
 35 27  1  0
M  END
>  <Title>  (48) 
idAAIJgen6

$$$$

     RDKit          2D

 30 34  0  0  0  0  0  0  0  0999 V2000
    3.6103  -12.5120    0.0000 C   0  0  0  0  0  0  0  0  0  0  0  0
    3.9222  -11.0448    0.0000 C   0  0  0  0  0  0  0  0  0  0  0  0
    5.3488  -10.5813    0.0000 C   0  0  0  0  0  0  0  0  0  0  0  0
    2.8075  -10.0411    0.0000 C   0  0  0  0  0  0  0  0  0  0  0  0
    3.1193   -8.5739    0.0000 C   0  0  0  0  0  0  0  0  0  0  0  0
    2.0046   -7.5702    0.0000 C   0  0  0  0  0  0  0  0  0  0  0  0
    1.3945   -8.9405    0.0000 C   0  0  0  0  0  0  0  0  0  0  0  0
   -0.0973   -8.7837    0.0000 C   0  0  0  0  0  0  0  0  0  0  0  0
   -0.4091   -7.3165    0.0000 C   0  0  0  0  0  0  0  0  0  0  0  0
    0.8899   -6.5665    0.0000 C   0  0  0  0  0  0  0  0  0  0  0  0
   -0.2248   -5.5628    0.0000 C   0  0  0  0  0  0  0  0  0  0  0  0
    1.5000   -5.1962    0.0000 C   0  0  0  0  0  0  0  0  0  0  0  0
    0.7500   -3.8971    0.0000 C   0  0  0  0  0  0  0  0  0  0  0  0
    1.5000   -2.5981    0.0000 C   0  0  0  0  0  0  0  0  0  0  0  0
    0.7500   -1.2990    0.0000 C   0  0  0  0  0  0  0  0  0  0  0  0
    1.5000    0.0000    0.0000 C   0  0  0  0  0  0  0  0  0  0  0  0
    0.7500    1.2990    0.0000 C   0  0  0  0  0  0  0  0  0  0  0  0
   -0.7500    1.2990    0.0000 C   0  0  0  0  0  0  0  0  0  0  0  0
   -1.5000    0.0000    0.0000 C   0  0  0  0  0  0  0  0  0  0  0  0
    1.7010   -0.7500    0.0000 C   0  0  0  0  0  0  0  0  0  0  0  0
    3.0000   -0.0000    0.0000 C   0  0  0  0  0  0  0  0  0  0  0  0
    2.2500    1.2990    0.0000 C   0  0  0  0  0  0  0  0  0  0  0  0
    2.2500   -1.2990    0.0000 C   0  0  0  0  0  0  0  0  0  0  0  0
   -0.7500   -1.2990    0.0000 C   0  0  0  0  0  0  0  0  0  0  0  0
    2.9918   -5.3529    0.0000 C   0  0  0  0  0  0  0  0  0  0  0  0
    3.9955   -4.2382    0.0000 C   0  0  0  0  0  0  0  0  0  0  0  0
    5.1102   -5.2419    0.0000 C   0  0  0  0  0  0  0  0  0  0  0  0
    2.8808   -3.2345    0.0000 C   0  0  0  0  0  0  0  0  0  0  0  0
    4.9992   -3.1235    0.0000 C   0  0  0  0  0  0  0  0  0  0  0  0
    3.3037   -6.8202    0.0000 C   0  0  0  0  0  0  0  0  0  0  0  0
  1  2  1  0
  2  3  1  0
  2  4  1  0
  4  5  1  0
  5  6  1  0
  6  7  1  0
  7  8  1  0
  8  9  1  0
  9 10  1  0
 10 11  1  0
 10 12  1  0
 12 13  1  0
 13 14  1  0
 14 15  1  0
 15 16  1  0
 16 17  1  0
 17 18  1  0
 18 19  1  0
 19 20  1  0
 20 21  1  0
 21 22  1  0
 21 23  1  0
 19 24  1  0
 12 25  1  0
 25 26  1  0
 26 27  1  0
 26 28  1  0
 26 29  1  0
 25 30  1  0
 10  6  1  0
 23 15  1  0
 30  6  1  0
 24 15  1  0
 22 17  1  0
M  END
>  <Title>  (49) 
idAAIKgen6

$$$$

     RDKit          2D

 20 22  0  0  0  0  0  0  0  0999 V2000
   -3.8597    1.0871    0.0000 C   0  0  0  0  0  0  0  0  0  0  0  0
   -4.2479   -0.3618    0.0000 C   0  0  0  0  0  0  0  0  0  0  0  0
   -4.6362   -1.8107    0.0000 C   0  0  0  0  0  0  0  0  0  0  0  0
   -5.6968    0.0265    0.0000 C   0  0  0  0  0  0  0  0  0  0  0  0
   -2.7990   -0.7500    0.0000 C   0  0  0  0  0  0  0  0  0  0  0  0
   -2.0490   -2.0490    0.0000 C   0  0  0  0  0  0  0  0  0  0  0  0
   -0.7500   -1.2990    0.0000 C   0  0  0  0  0  0  0  0  0  0  0  0
   -0.3618   -2.7479    0.0000 C   0  0  0  0  0  0  0  0  0  0  0  0
    0.7500   -1.2990    0.0000 C   0  0  0  0  0  0  0  0  0  0  0  0
    1.5000   -2.5981    0.0000 C   0  0  0  0  0  0  0  0  0  0  0  0
    0.7500   -3.8971    0.0000 C   0  0  0  0  0  0  0  0  0  0  0  0
    1.5000   -5.1962    0.0000 C   0  0  0  0  0  0  0  0  0  0  0  0
    2.9918   -5.3529    0.0000 C   0  0  0  0  0  0  0  0  0  0  0  0
    3.3037   -6.8202    0.0000 C   0  0  0  0  0  0  0  0  0  0  0  0
    2.0046   -7.5702    0.0000 C   0  0  0  0  0  0  0  0  0  0  0  0
    0.8899   -6.5665    0.0000 C   0  0  0  0  0  0  0  0  0  0  0  0
    1.5000    0.0000    0.0000 C   0  0  0  0  0  0  0  0  0  0  0  0
    0.7500    1.2990    0.0000 C   0  0  0  0  0  0  0  0  0  0  0  0
   -0.7500    1.2990    0.0000 C   0  0  0  0  0  0  0  0  0  0  0  0
   -1.5000    0.0000    0.0000 C   0  0  0  0  0  0  0  0  0  0  0  0
  1  2  1  0
  2  3  1  0
  2  4  1  0
  2  5  1  0
  5  6  1  0
  6  7  1  0
  7  8  1  0
  7  9  1  0
  9 10  1  0
 10 11  1  0
 11 12  1  0
 12 13  1  0
 13 14  1  0
 14 15  1  0
 15 16  1  0
  9 17  1  0
 17 18  1  0
 18 19  1  0
 19 20  1  0
 20  5  1  0
 20  7  1  0
 16 12  1  0
M  END
>  <Title>  (50) 
idAAILgen6

$$$$

     RDKit          2D

 62 67  0  0  0  0  0  0  0  0999 V2000
   -2.5981   -7.0607    0.0000 N   0  0  0  0  0  0  0  0  0  0  0  0
   -2.5981   -5.5607    0.0000 C   0  0  0  0  0  0  0  0  0  0  0  0
   -3.8971   -4.8107    0.0000 O   0  0  0  0  0  0  0  0  0  0  0  0
   -1.2990   -4.8107    0.0000 C   0  0  0  0  0  0  0  0  0  0  0  0
   -1.2990   -3.3107    0.0000 C   0  0  0  0  0  0  0  0  0  0  0  0
   -0.0000   -2.5607    0.0000 C   0  0  0  0  0  0  0  0  0  0  0  0
   -0.0000   -1.0607    0.0000 C   0  0  0  0  0  0  0  0  0  0  0  0
    1.0607    0.0000    0.0000 C   0  0  0  0  0  0  0  0  0  0  0  0
    0.0000    1.0607    0.0000 C   0  0  0  0  0  0  0  0  0  0  0  0
   -1.0607    0.0000    0.0000 C   0  0  0  0  0  0  0  0  0  0  0  0
    1.4266    0.5971    0.0000 C   0  0  0  0  0  0  0  0  0  0  0  0
    2.6401    1.4788    0.0000 C   0  0  0  0  0  0  0  0  0  0  0  0
    4.0104    0.8687    0.0000 O   0  0  0  0  0  0  0  0  0  0  0  0
    2.4833    2.9706    0.0000 N   0  0  0  0  0  0  0  0  0  0  0  0
    3.6968    3.8523    0.0000 C   0  0  0  0  0  0  0  0  0  0  0  0
    3.5401    5.3441    0.0000 C   0  0  0  0  0  0  0  0  0  0  0  0
    4.7536    6.2257    0.0000 C   0  0  0  0  0  0  0  0  0  0  0  0
    6.1239    5.6156    0.0000 C   0  0  0  0  0  0  0  0  0  0  0  0
    7.3374    6.4973    0.0000 C   0  0  0  0  0  0  0  0  0  0  0  0
    7.1806    7.9891    0.0000 C   0  0  0  0  0  0  0  0  0  0  0  0
    5.8103    8.5992    0.0000 C   0  0  0  0  0  0  0  0  0  0  0  0
    4.5968    7.7175    0.0000 C   0  0  0  0  0  0  0  0  0  0  0  0
    5.0672    3.2422    0.0000 C   0  0  0  0  0  0  0  0  0  0  0  0
    5.2240    1.7504    0.0000 O   0  0  0  0  0  0  0  0  0  0  0  0
    6.2807    4.1238    0.0000 N   0  0  0  0  0  0  0  0  0  0  0  0
    7.6510    3.5137    0.0000 C   0  0  0  0  0  0  0  0  0  0  0  0
    8.8645    4.3954    0.0000 C   0  0  0  0  0  0  0  0  0  0  0  0
   10.2348    3.7853    0.0000 C   0  0  0  0  0  0  0  0  0  0  0  0
   10.3916    2.2935    0.0000 C   0  0  0  0  0  0  0  0  0  0  0  0
   11.7620    1.6834    0.0000 C   0  0  0  0  0  0  0  0  0  0  0  0
   12.9755    2.5651    0.0000 C   0  0  0  0  0  0  0  0  0  0  0  0
   12.8187    4.0569    0.0000 C   0  0  0  0  0  0  0  0  0  0  0  0
   11.4484    4.6670    0.0000 C   0  0  0  0  0  0  0  0  0  0  0  0
    7.8078    2.0220    0.0000 C   0  0  0  0  0  0  0  0  0  0  0  0
    6.5943    1.1403    0.0000 O   0  0  0  0  0  0  0  0  0  0  0  0
    9.1781    1.4119    0.0000 O   0  0  0  0  0  0  0  0  0  0  0  0
    1.4266   -0.9029    0.0000 C   0  0  0  0  0  0  0  0  0  0  0  0
   -2.5981   -2.5607    0.0000 C   0  0  0  0  0  0  0  0  0  0  0  0
   -2.5981   -1.0607    0.0000 O   0  0  0  0  0  0  0  0  0  0  0  0
   -3.8971   -3.3107    0.0000 N   0  0  0  0  0  0  0  0  0  0  0  0
   -5.1962   -2.5607    0.0000 C   0  0  0  0  0  0  0  0  0  0  0  0
   -6.4952   -3.3107    0.0000 C   0  0  0  0  0  0  0  0  0  0  0  0
   -7.7942   -2.5607    0.0000 C   0  0  0  0  0  0  0  0  0  0  0  0
   -7.7942   -1.0607    0.0000 C   0  0  0  0  0  0  0  0  0  0  0  0
   -9.0933   -0.3107    0.0000 C   0  0  0  0  0  0  0  0  0  0  0  0
  -10.3923   -1.0607    0.0000 C   0  0  0  0  0  0  0  0  0  0  0  0
  -10.3923   -2.5607    0.0000 C   0  0  0  0  0  0  0  0  0  0  0  0
   -9.0933   -3.3107    0.0000 C   0  0  0  0  0  0  0  0  0  0  0  0
   -5.1962   -1.0607    0.0000 C   0  0  0  0  0  0  0  0  0  0  0  0
   -3.8971   -0.3107    0.0000 O   0  0  0  0  0  0  0  0  0  0  0  0
   -6.4952   -0.3107    0.0000 N   0  0  0  0  0  0  0  0  0  0  0  0
   -6.4952    1.1893    0.0000 C   0  0  0  0  0  0  0  0  0  0  0  0
   -7.7942    1.9393    0.0000 C   0  0  0  0  0  0  0  0  0  0  0  0
   -7.7942    3.4393    0.0000 C   0  0  0  0  0  0  0  0  0  0  0  0
   -6.4952    4.1893    0.0000 C   0  0  0  0  0  0  0  0  0  0  0  0
   -6.4952    5.6893    0.0000 C   0  0  0  0  0  0  0  0  0  0  0  0
   -7.7942    6.4393    0.0000 C   0  0  0  0  0  0  0  0  0  0  0  0
   -9.0933    5.6893    0.0000 C   0  0  0  0  0  0  0  0  0  0  0  0
   -9.0933    4.1893    0.0000 C   0  0  0  0  0  0  0  0  0  0  0  0
   -5.1962    1.9393    0.0000 C   0  0  0  0  0  0  0  0  0  0  0  0
   -3.8971    1.1893    0.0000 O   0  0  0  0  0  0  0  0  0  0  0  0
   -5.1962    3.4393    0.0000 O   0  0  0  0  0  0  0  0  0  0  0  0
  1  2  1  0
  2  3  2  0
  2  4  1  0
  4  5  1  0
  5  6  1  0
  6  7  1  0
  7  8  1  0
  8  9  1  0
  9 10  1  0
  9 11  1  0
 11 12  1  0
 12 13  2  0
 12 14  1  0
 14 15  1  0
 15 16  1  0
 16 17  1  0
 17 18  2  0
 18 19  1  0
 19 20  2  0
 20 21  1  0
 21 22  2  0
 15 23  1  0
 23 24  2  0
 23 25  1  0
 25 26  1  0
 26 27  1  0
 27 28  1  0
 28 29  2  0
 29 30  1  0
 30 31  2  0
 31 32  1  0
 32 33  2  0
 26 34  1  0
 34 35  2  0
 34 36  1  0
 11 37  1  0
  5 38  1  0
 38 39  2  0
 38 40  1  0
 40 41  1  0
 41 42  1  0
 42 43  1  0
 43 44  2  0
 44 45  1  0
 45 46  2  0
 46 47  1  0
 47 48  2  0
 41 49  1  0
 49 50  2  0
 49 51  1  0
 51 52  1  0
 52 53  1  0
 53 54  1  0
 54 55  2  0
 55 56  1  0
 56 57  2  0
 57 58  1  0
 58 59  2  0
 52 60  1  0
 60 61  2  0
 60 62  1  0
 10  7  1  0
 22 17  1  0
 33 28  1  0
 48 43  1  0
 59 54  1  0
 37  7  1  0
M  END
>  <Title>  (51) 
idAAIMgen6

$$$$

     RDKit          2D

 39 41  0  0  0  0  0  0  0  0999 V2000
    2.8730   -1.5816    0.0000 C   0  0  0  0  0  0  0  0  0  0  0  0
    1.3858   -1.3858    0.0000 C   0  0  0  0  0  0  0  0  0  0  0  0
    1.5816   -2.8730    0.0000 C   0  0  0  0  0  0  0  0  0  0  0  0
    2.9674   -3.4470    0.0000 C   0  0  0  0  0  0  0  0  0  0  0  0
    3.1632   -4.9342    0.0000 C   0  0  0  0  0  0  0  0  0  0  0  0
    4.5490   -5.5082    0.0000 C   0  0  0  0  0  0  0  0  0  0  0  0
    5.7391   -4.5951    0.0000 O   0  0  0  0  0  0  0  0  0  0  0  0
    4.7448   -6.9954    0.0000 C   0  0  0  0  0  0  0  0  0  0  0  0
    3.2453   -7.0346    0.0000 O   0  0  0  0  0  0  0  0  0  0  0  0
    4.6271   -8.4907    0.0000 C   0  0  0  0  0  0  0  0  0  0  0  0
    6.0130   -9.0648    0.0000 C   0  0  0  0  0  0  0  0  0  0  0  0
    6.9871   -7.9242    0.0000 C   0  0  0  0  0  0  0  0  0  0  0  0
    6.2034   -6.6452    0.0000 C   0  0  0  0  0  0  0  0  0  0  0  0
    4.1575   -2.5339    0.0000 C   0  0  0  0  0  0  0  0  0  0  0  0
    3.9617   -1.0467    0.0000 O   0  0  0  0  0  0  0  0  0  0  0  0
    5.5433   -3.1079    0.0000 C   0  0  0  0  0  0  0  0  0  0  0  0
    6.7333   -2.1948    0.0000 O   0  0  0  0  0  0  0  0  0  0  0  0
    1.9598    0.0000    0.0000 C   0  0  0  0  0  0  0  0  0  0  0  0
    1.3858    1.3858    0.0000 C   0  0  0  0  0  0  0  0  0  0  0  0
    0.0000    1.9598    0.0000 C   0  0  0  0  0  0  0  0  0  0  0  0
   -1.3858    1.3858    0.0000 C   0  0  0  0  0  0  0  0  0  0  0  0
   -1.9598    0.0000    0.0000 C   0  0  0  0  0  0  0  0  0  0  0  0
   -1.3858   -1.3858    0.0000 C   0  0  0  0  0  0  0  0  0  0  0  0
   -0.0000   -1.9598    0.0000 C   0  0  0  0  0  0  0  0  0  0  0  0
   -0.0000   -3.4598    0.0000 C   0  0  0  0  0  0  0  0  0  0  0  0
   -1.2990   -4.2098    0.0000 C   0  0  0  0  0  0  0  0  0  0  0  0
   -1.7412   -2.7765    0.0000 C   0  0  0  0  0  0  0  0  0  0  0  0
   -0.7013   -2.1481    0.0000 C   0  0  0  0  0  0  0  0  0  0  0  0
   -3.1745   -3.2186    0.0000 C   0  0  0  0  0  0  0  0  0  0  0  0
   -2.1833   -1.3431    0.0000 C   0  0  0  0  0  0  0  0  0  0  0  0
   -2.7948   -4.3219    0.0000 C   0  0  0  0  0  0  0  0  0  0  0  0
   -3.6398   -5.5613    0.0000 C   0  0  0  0  0  0  0  0  0  0  0  0
   -5.1231   -5.3377    0.0000 O   0  0  0  0  0  0  0  0  0  0  0  0
   -3.1977   -6.9947    0.0000 C   0  0  0  0  0  0  0  0  0  0  0  0
   -1.8014   -7.5427    0.0000 C   0  0  0  0  0  0  0  0  0  0  0  0
   -0.5023   -6.7927    0.0000 C   0  0  0  0  0  0  0  0  0  0  0  0
   -0.2788   -5.3094    0.0000 C   0  0  0  0  0  0  0  0  0  0  0  0
    1.1175   -5.8574    0.0000 C   0  0  0  0  0  0  0  0  0  0  0  0
    0.5662   -4.0701    0.0000 C   0  0  0  0  0  0  0  0  0  0  0  0
  1  2  1  0
  2  3  1  0
  3  4  1  0
  4  5  1  0
  5  6  1  0
  6  7  1  0
  6  8  1  0
  8  9  1  0
  8 10  1  0
 10 11  1  0
 11 12  1  0
 12 13  1  0
  4 14  1  0
 14 15  1  0
 14 16  1  0
 16 17  1  0
  2 18  1  0
 18 19  1  0
 19 20  1  0
 20 21  1  0
 21 22  1  0
 22 23  1  0
 23 24  1  0
 24 25  1  0
 25 26  1  0
 26 27  1  0
 27 28  1  0
 27 29  1  0
 27 30  1  0
 26 31  1  0
 31 32  1  0
 32 33  1  0
 32 34  1  0
 34 35  1  0
 35 36  1  0
 36 37  1  0
 37 38  1  0
 37 39  1  0
 24  2  1  0
 37 26  1  0
 13  8  1  0
M  END
>  <Title>  (52) 
idAAINgen6

$$$$

     RDKit          2D

 31 35  0  0  0  0  0  0  0  0999 V2000
    5.2500   -1.2990    0.0000 C   0  0  0  0  0  0  0  0  0  0  0  0
    3.7500   -1.2990    0.0000 C   0  0  0  0  0  0  0  0  0  0  0  0
    3.0000   -2.5981    0.0000 C   0  0  0  0  0  0  0  0  0  0  0  0
    3.0000   -0.0000    0.0000 C   0  0  0  0  0  0  0  0  0  0  0  0
    1.5000    0.0000    0.0000 C   0  0  0  0  0  0  0  0  0  0  0  0
    0.7500   -1.2990    0.0000 C   0  0  0  0  0  0  0  0  0  0  0  0
   -0.7500   -1.2990    0.0000 C   0  0  0  0  0  0  0  0  0  0  0  0
   -1.5000    0.0000    0.0000 C   0  0  0  0  0  0  0  0  0  0  0  0
   -0.7500    1.2990    0.0000 C   0  0  0  0  0  0  0  0  0  0  0  0
    0.7500    1.2990    0.0000 C   0  0  0  0  0  0  0  0  0  0  0  0
    1.5000    2.5981    0.0000 C   0  0  0  0  0  0  0  0  0  0  0  0
    2.2124    1.6328    0.0000 C   0  0  0  0  0  0  0  0  0  0  0  0
    2.5462    3.0952    0.0000 C   0  0  0  0  0  0  0  0  0  0  0  0
    1.4466    4.1155    0.0000 C   0  0  0  0  0  0  0  0  0  0  0  0
    1.7804    5.5779    0.0000 C   0  0  0  0  0  0  0  0  0  0  0  0
    0.6808    6.5981    0.0000 C   0  0  0  0  0  0  0  0  0  0  0  0
    1.0146    8.0605    0.0000 C   0  0  0  0  0  0  0  0  0  0  0  0
    2.4479    8.5026    0.0000 C   0  0  0  0  0  0  0  0  0  0  0  0
    3.5475    7.4824    0.0000 C   0  0  0  0  0  0  0  0  0  0  0  0
    0.7098    5.8222    0.0000 C   0  0  0  0  0  0  0  0  0  0  0  0
   -0.7526    6.1560    0.0000 C   0  0  0  0  0  0  0  0  0  0  0  0
   -0.4188    7.6184    0.0000 C   0  0  0  0  0  0  0  0  0  0  0  0
    0.3470    5.1357    0.0000 C   0  0  0  0  0  0  0  0  0  0  0  0
    3.2137    6.0200    0.0000 C   0  0  0  0  0  0  0  0  0  0  0  0
    3.3851    0.6976    0.0000 C   0  0  0  0  0  0  0  0  0  0  0  0
    4.7366    1.3484    0.0000 C   0  0  0  0  0  0  0  0  0  0  0  0
    5.3874   -0.0030    0.0000 C   0  0  0  0  0  0  0  0  0  0  0  0
    4.0858    2.6999    0.0000 C   0  0  0  0  0  0  0  0  0  0  0  0
    6.0880    1.9992    0.0000 C   0  0  0  0  0  0  0  0  0  0  0  0
    3.3851   -0.8024    0.0000 C   0  0  0  0  0  0  0  0  0  0  0  0
    2.2124   -1.7376    0.0000 C   0  0  0  0  0  0  0  0  0  0  0  0
  1  2  1  0
  2  3  1  0
  2  4  1  0
  4  5  1  0
  5  6  1  0
  6  7  1  0
  7  8  1  0
  8  9  1  0
  9 10  1  0
 10 11  1  0
 10 12  1  0
 12 13  1  0
 13 14  1  0
 14 15  1  0
 15 16  1  0
 16 17  1  0
 17 18  1  0
 18 19  1  0
 19 20  1  0
 20 21  1  0
 21 22  1  0
 21 23  1  0
 19 24  1  0
 12 25  1  0
 25 26  1  0
 26 27  1  0
 26 28  1  0
 26 29  1  0
 25 30  1  0
 30 31  1  0
 10  5  1  0
 23 15  1  0
 31  6  1  0
 24 15  1  0
 22 17  1  0
M  END
>  <Title>  (53) 
idAAIOgen6

$$$$

     RDKit          2D

 64 71  0  0  0  0  0  0  0  0999 V2000
   -4.5000   -2.5981    0.0000 O   0  0  0  0  0  0  0  0  0  0  0  0
   -3.7500   -3.8971    0.0000 C   0  0  0  0  0  0  0  0  0  0  0  0
   -2.2500   -3.8971    0.0000 N   0  0  0  0  0  0  0  0  0  0  0  0
   -1.5000   -2.5981    0.0000 C   0  0  0  0  0  0  0  0  0  0  0  0
   -0.0000   -2.5981    0.0000 C   0  0  0  0  0  0  0  0  0  0  0  0
    0.7500   -1.2990    0.0000 C   0  0  0  0  0  0  0  0  0  0  0  0
    1.5000    0.0000    0.0000 C   0  0  0  0  0  0  0  0  0  0  0  0
    0.7500    1.2990    0.0000 C   0  0  0  0  0  0  0  0  0  0  0  0
   -0.7500    1.2990    0.0000 C   0  0  0  0  0  0  0  0  0  0  0  0
   -1.5000    0.0000    0.0000 C   0  0  0  0  0  0  0  0  0  0  0  0
   -2.2500   -1.2990    0.0000 C   0  0  0  0  0  0  0  0  0  0  0  0
   -0.7500   -1.2990    0.0000 N   0  0  0  0  0  0  0  0  0  0  0  0
   -1.5000   -2.5981    0.0000 C   0  0  0  0  0  0  0  0  0  0  0  0
   -3.0000   -2.5981    0.0000 C   0  0  0  0  0  0  0  0  0  0  0  0
   -3.7500   -3.8971    0.0000 C   0  0  0  0  0  0  0  0  0  0  0  0
   -5.2500   -3.8971    0.0000 C   0  0  0  0  0  0  0  0  0  0  0  0
   -6.0000   -5.1962    0.0000 C   0  0  0  0  0  0  0  0  0  0  0  0
   -5.2500   -6.4952    0.0000 C   0  0  0  0  0  0  0  0  0  0  0  0
   -3.7500   -6.4952    0.0000 C   0  0  0  0  0  0  0  0  0  0  0  0
   -3.0000   -5.1962    0.0000 C   0  0  0  0  0  0  0  0  0  0  0  0
   -4.5000   -5.1962    0.0000 C   0  0  0  0  0  0  0  0  0  0  0  0
   -3.6550   -6.4355    0.0000 C   0  0  0  0  0  0  0  0  0  0  0  0
   -4.0972   -7.8689    0.0000 O   0  0  0  0  0  0  0  0  0  0  0  0
   -5.4935   -8.4169    0.0000 C   0  0  0  0  0  0  0  0  0  0  0  0
   -6.7925   -7.6669    0.0000 C   0  0  0  0  0  0  0  0  0  0  0  0
   -7.0161   -6.1836    0.0000 C   0  0  0  0  0  0  0  0  0  0  0  0
   -5.9958   -5.0841    0.0000 C   0  0  0  0  0  0  0  0  0  0  0  0
   -5.7170   -6.9336    0.0000 C   0  0  0  0  0  0  0  0  0  0  0  0
   -4.4777   -6.0887    0.0000 C   0  0  0  0  0  0  0  0  0  0  0  0
   -4.2245   -4.6102    0.0000 O   0  0  0  0  0  0  0  0  0  0  0  0
   -3.1262   -6.7395    0.0000 N   0  0  0  0  0  0  0  0  0  0  0  0
   -1.8869   -5.8945    0.0000 C   0  0  0  0  0  0  0  0  0  0  0  0
   -0.5354   -6.5453    0.0000 C   0  0  0  0  0  0  0  0  0  0  0  0
    0.7040   -5.7003    0.0000 C   0  0  0  0  0  0  0  0  0  0  0  0
    2.0554   -6.3512    0.0000 C   0  0  0  0  0  0  0  0  0  0  0  0
    3.2948   -5.5062    0.0000 C   0  0  0  0  0  0  0  0  0  0  0  0
    3.1827   -4.0104    0.0000 C   0  0  0  0  0  0  0  0  0  0  0  0
    1.8312   -3.3596    0.0000 C   0  0  0  0  0  0  0  0  0  0  0  0
    0.5919   -4.2045    0.0000 C   0  0  0  0  0  0  0  0  0  0  0  0
   -1.9990   -4.3987    0.0000 C   0  0  0  0  0  0  0  0  0  0  0  0
   -3.3504   -3.7479    0.0000 O   0  0  0  0  0  0  0  0  0  0  0  0
   -0.7596   -3.5537    0.0000 N   0  0  0  0  0  0  0  0  0  0  0  0
   -0.8717   -2.0579    0.0000 C   0  0  0  0  0  0  0  0  0  0  0  0
    0.3677   -1.2129    0.0000 C   0  0  0  0  0  0  0  0  0  0  0  0
    0.2556    0.2829    0.0000 C   0  0  0  0  0  0  0  0  0  0  0  0
    1.4949    1.1279    0.0000 C   0  0  0  0  0  0  0  0  0  0  0  0
    1.3828    2.6237    0.0000 C   0  0  0  0  0  0  0  0  0  0  0  0
    0.0314    3.2745    0.0000 C   0  0  0  0  0  0  0  0  0  0  0  0
   -1.2080    2.4295    0.0000 C   0  0  0  0  0  0  0  0  0  0  0  0
   -1.0959    0.9337    0.0000 C   0  0  0  0  0  0  0  0  0  0  0  0
   -2.2231   -1.4071    0.0000 C   0  0  0  0  0  0  0  0  0  0  0  0
   -3.6301   -1.9271    0.0000 O   0  0  0  0  0  0  0  0  0  0  0  0
   -2.3352    0.0887    0.0000 N   0  0  0  0  0  0  0  0  0  0  0  0
   -3.6867    0.7395    0.0000 C   0  0  0  0  0  0  0  0  0  0  0  0
   -3.7988    2.2354    0.0000 C   0  0  0  0  0  0  0  0  0  0  0  0
   -5.1502    2.8862    0.0000 C   0  0  0  0  0  0  0  0  0  0  0  0
   -5.2623    4.3820    0.0000 C   0  0  0  0  0  0  0  0  0  0  0  0
   -6.6138    5.0328    0.0000 C   0  0  0  0  0  0  0  0  0  0  0  0
   -7.8531    4.1878    0.0000 C   0  0  0  0  0  0  0  0  0  0  0  0
   -7.7411    2.6920    0.0000 C   0  0  0  0  0  0  0  0  0  0  0  0
   -6.3896    2.0412    0.0000 C   0  0  0  0  0  0  0  0  0  0  0  0
   -4.9260   -0.1054    0.0000 C   0  0  0  0  0  0  0  0  0  0  0  0
   -4.8140   -1.6012    0.0000 O   0  0  0  0  0  0  0  0  0  0  0  0
   -6.2775    0.5454    0.0000 O   0  0  0  0  0  0  0  0  0  0  0  0
  1  2  2  0
  2  3  1  0
  3  4  1  0
  4  5  1  0
  5  6  1  0
  6  7  1  0
  7  8  1  0
  8  9  1  0
  9 10  1  0
 10 11  1  0
 10 12  1  0
 12 13  1  0
 13 14  1  0
 14 15  1  0
 15 16  2  0
 16 17  1  0
 17 18  2  0
 18 19  1  0
 19 20  2  0
  2 21  1  0
 21 22  1  0
 22 23  1  0
 23 24  1  0
 24 25  1  0
 25 26  1  0
 26 27  1  0
 26 28  1  0
 28 29  1  0
 29 30  2  0
 29 31  1  0
 31 32  1  0
 32 33  1  0
 33 34  1  0
 34 35  2  0
 35 36  1  0
 36 37  2  0
 37 38  1  0
 38 39  2  0
 32 40  1  0
 40 41  2  0
 40 42  1  0
 42 43  1  0
 43 44  1  0
 44 45  1  0
 45 46  2  0
 46 47  1  0
 47 48  2  0
 48 49  1  0
 49 50  2  0
 43 51  1  0
 51 52  2  0
 51 53  1  0
 53 54  1  0
 54 55  1  0
 55 56  1  0
 56 57  2  0
 57 58  1  0
 58 59  2  0
 59 60  1  0
 60 61  2  0
 54 62  1  0
 62 63  2  0
 62 64  1  0
 11  4  1  0
 20 15  1  0
 27 21  1  0
 39 34  1  0
 50 45  1  0
 61 56  1  0
 12  6  1  0
 28 24  1  0
M  END
>  <Title>  (54) 
idAAIPgen6

$$$$

     RDKit          2D

 71 78  0  0  0  0  0  0  0  0999 V2000
   -5.7296    5.7685    0.0000 O   0  0  0  0  0  0  0  0  0  0  0  0
   -5.8864    4.2767    0.0000 C   0  0  0  0  0  0  0  0  0  0  0  0
   -4.6729    3.3950    0.0000 N   0  0  0  0  0  0  0  0  0  0  0  0
   -3.3025    4.0051    0.0000 C   0  0  0  0  0  0  0  0  0  0  0  0
   -3.1458    5.4969    0.0000 C   0  0  0  0  0  0  0  0  0  0  0  0
   -1.7754    6.1070    0.0000 C   0  0  0  0  0  0  0  0  0  0  0  0
   -1.6186    7.5988    0.0000 C   0  0  0  0  0  0  0  0  0  0  0  0
   -0.2483    8.2089    0.0000 C   0  0  0  0  0  0  0  0  0  0  0  0
    0.9652    7.3272    0.0000 C   0  0  0  0  0  0  0  0  0  0  0  0
    0.8084    5.8355    0.0000 C   0  0  0  0  0  0  0  0  0  0  0  0
   -0.5619    5.2253    0.0000 C   0  0  0  0  0  0  0  0  0  0  0  0
   -2.0890    3.1235    0.0000 C   0  0  0  0  0  0  0  0  0  0  0  0
   -0.7187    3.7336    0.0000 O   0  0  0  0  0  0  0  0  0  0  0  0
   -2.2458    1.6317    0.0000 C   0  0  0  0  0  0  0  0  0  0  0  0
   -1.0323    0.7500    0.0000 C   0  0  0  0  0  0  0  0  0  0  0  0
    0.3943    1.2135    0.0000 C   0  0  0  0  0  0  0  0  0  0  0  0
    1.2760    0.0000    0.0000 C   0  0  0  0  0  0  0  0  0  0  0  0
    0.3943   -1.2135    0.0000 C   0  0  0  0  0  0  0  0  0  0  0  0
   -1.0323   -0.7500    0.0000 C   0  0  0  0  0  0  0  0  0  0  0  0
   -2.4116   -0.1605    0.0000 C   0  0  0  0  0  0  0  0  0  0  0  0
   -2.8106    1.2855    0.0000 C   0  0  0  0  0  0  0  0  0  0  0  0
   -4.2865    1.5533    0.0000 C   0  0  0  0  0  0  0  0  0  0  0  0
   -5.1192    2.8010    0.0000 O   0  0  0  0  0  0  0  0  0  0  0  0
   -5.2564    0.4091    0.0000 N   0  0  0  0  0  0  0  0  0  0  0  0
   -6.7323    0.6769    0.0000 C   0  0  0  0  0  0  0  0  0  0  0  0
   -7.7022   -0.4673    0.0000 C   0  0  0  0  0  0  0  0  0  0  0  0
   -9.1781   -0.1995    0.0000 C   0  0  0  0  0  0  0  0  0  0  0  0
   -9.6841    1.2126    0.0000 C   0  0  0  0  0  0  0  0  0  0  0  0
  -11.1600    1.4804    0.0000 C   0  0  0  0  0  0  0  0  0  0  0  0
  -12.1299    0.3362    0.0000 C   0  0  0  0  0  0  0  0  0  0  0  0
  -11.6239   -1.0759    0.0000 C   0  0  0  0  0  0  0  0  0  0  0  0
  -10.1480   -1.3437    0.0000 C   0  0  0  0  0  0  0  0  0  0  0  0
   -7.2383    2.0890    0.0000 C   0  0  0  0  0  0  0  0  0  0  0  0
   -6.2684    3.2332    0.0000 O   0  0  0  0  0  0  0  0  0  0  0  0
   -8.7142    2.3568    0.0000 N   0  0  0  0  0  0  0  0  0  0  0  0
   -9.2202    3.7689    0.0000 C   0  0  0  0  0  0  0  0  0  0  0  0
  -10.6961    4.0367    0.0000 C   0  0  0  0  0  0  0  0  0  0  0  0
  -11.2021    5.4488    0.0000 C   0  0  0  0  0  0  0  0  0  0  0  0
  -10.2322    6.5931    0.0000 C   0  0  0  0  0  0  0  0  0  0  0  0
  -10.7382    8.0051    0.0000 C   0  0  0  0  0  0  0  0  0  0  0  0
  -12.2141    8.2730    0.0000 C   0  0  0  0  0  0  0  0  0  0  0  0
  -13.1840    7.1287    0.0000 C   0  0  0  0  0  0  0  0  0  0  0  0
  -12.6780    5.7167    0.0000 C   0  0  0  0  0  0  0  0  0  0  0  0
   -8.2503    4.9131    0.0000 C   0  0  0  0  0  0  0  0  0  0  0  0
   -6.7744    4.6453    0.0000 O   0  0  0  0  0  0  0  0  0  0  0  0
   -8.3996    6.4057    0.0000 O   0  0  0  0  0  0  0  0  0  0  0  0
   -1.9290    2.4990    0.0000 C   0  0  0  0  0  0  0  0  0  0  0  0
   -2.6398    3.8199    0.0000 C   0  0  0  0  0  0  0  0  0  0  0  0
   -4.1054    3.5006    0.0000 O   0  0  0  0  0  0  0  0  0  0  0  0
   -1.8512    5.0959    0.0000 N   0  0  0  0  0  0  0  0  0  0  0  0
   -2.5620    6.4168    0.0000 C   0  0  0  0  0  0  0  0  0  0  0  0
   -1.7735    7.6928    0.0000 C   0  0  0  0  0  0  0  0  0  0  0  0
   -2.4843    9.0137    0.0000 C   0  0  0  0  0  0  0  0  0  0  0  0
   -1.6958   10.2897    0.0000 C   0  0  0  0  0  0  0  0  0  0  0  0
   -2.4066   11.6106    0.0000 C   0  0  0  0  0  0  0  0  0  0  0  0
   -3.9059   11.6555    0.0000 C   0  0  0  0  0  0  0  0  0  0  0  0
   -4.6944   10.3795    0.0000 C   0  0  0  0  0  0  0  0  0  0  0  0
   -3.9836    9.0586    0.0000 C   0  0  0  0  0  0  0  0  0  0  0  0
   -4.0614    6.4617    0.0000 C   0  0  0  0  0  0  0  0  0  0  0  0
   -4.8499    5.1857    0.0000 O   0  0  0  0  0  0  0  0  0  0  0  0
   -4.7722    7.7826    0.0000 O   0  0  0  0  0  0  0  0  0  0  0  0
   -0.4305    2.5663    0.0000 C   0  0  0  0  0  0  0  0  0  0  0  0
   -7.2567    3.6666    0.0000 O   0  0  0  0  0  0  0  0  0  0  0  0
   -8.4702    4.5483    0.0000 C   0  0  0  0  0  0  0  0  0  0  0  0
   -8.4702    6.0483    0.0000 C   0  0  0  0  0  0  0  0  0  0  0  0
   -9.8968    6.5118    0.0000 O   0  0  0  0  0  0  0  0  0  0  0  0
  -10.7785    5.2983    0.0000 C   0  0  0  0  0  0  0  0  0  0  0  0
  -12.2051    4.8348    0.0000 O   0  0  0  0  0  0  0  0  0  0  0  0
  -12.2051    3.3348    0.0000 C   0  0  0  0  0  0  0  0  0  0  0  0
  -10.7785    2.8712    0.0000 C   0  0  0  0  0  0  0  0  0  0  0  0
   -9.8968    4.0848    0.0000 C   0  0  0  0  0  0  0  0  0  0  0  0
  1  2  2  0
  2  3  1  0
  3  4  1  0
  4  5  1  0
  5  6  1  0
  6  7  2  0
  7  8  1  0
  8  9  2  0
  9 10  1  0
 10 11  2  0
  4 12  1  0
 12 13  1  0
 12 14  1  0
 14 15  1  0
 15 16  1  0
 16 17  1  0
 17 18  1  0
 18 19  1  0
 19 20  1  0
 20 21  1  0
 21 22  1  0
 22 23  2  0
 22 24  1  0
 24 25  1  0
 25 26  1  0
 26 27  1  0
 27 28  2  0
 28 29  1  0
 29 30  2  0
 30 31  1  0
 31 32  2  0
 25 33  1  0
 33 34  2  0
 33 35  1  0
 35 36  1  0
 36 37  1  0
 37 38  1  0
 38 39  2  0
 39 40  1  0
 40 41  2  0
 41 42  1  0
 42 43  2  0
 36 44  1  0
 44 45  2  0
 44 46  1  0
 21 47  1  0
 47 48  1  0
 48 49  2  0
 48 50  1  0
 50 51  1  0
 51 52  1  0
 52 53  1  0
 53 54  2  0
 54 55  1  0
 55 56  2  0
 56 57  1  0
 57 58  2  0
 51 59  1  0
 59 60  2  0
 59 61  1  0
 47 62  1  0
  2 63  1  0
 63 64  1  0
 64 65  1  0
 65 66  1  0
 66 67  1  0
 67 68  1  0
 68 69  1  0
 69 70  1  0
 70 71  1  0
 11  6  1  0
 19 15  1  0
 32 27  1  0
 43 38  1  0
 58 53  1  0
 71 64  1  0
 62 16  1  0
 71 67  1  0
M  END
>  <Title>  (55) 
idAAIQgen6

$$$$

     RDKit          2D

 68 74  0  0  0  0  0  0  0  0999 V2000
    6.0000   -2.5981    0.0000 O   0  0  0  0  0  0  0  0  0  0  0  0
    7.5000   -2.5981    0.0000 C   0  0  0  0  0  0  0  0  0  0  0  0
    8.2500   -1.2990    0.0000 O   0  0  0  0  0  0  0  0  0  0  0  0
    8.2500   -3.8971    0.0000 C   0  0  0  0  0  0  0  0  0  0  0  0
    9.7500   -3.8971    0.0000 C   0  0  0  0  0  0  0  0  0  0  0  0
   10.5000   -2.5981    0.0000 C   0  0  0  0  0  0  0  0  0  0  0  0
   12.0000   -2.5981    0.0000 C   0  0  0  0  0  0  0  0  0  0  0  0
   12.7500   -1.2990    0.0000 C   0  0  0  0  0  0  0  0  0  0  0  0
   12.0000    0.0000    0.0000 C   0  0  0  0  0  0  0  0  0  0  0  0
   10.5000    0.0000    0.0000 C   0  0  0  0  0  0  0  0  0  0  0  0
    9.7500   -1.2990    0.0000 C   0  0  0  0  0  0  0  0  0  0  0  0
    7.5000   -5.1962    0.0000 N   0  0  0  0  0  0  0  0  0  0  0  0
    6.0000   -5.1962    0.0000 C   0  0  0  0  0  0  0  0  0  0  0  0
    5.5866   -3.7542    0.0000 O   0  0  0  0  0  0  0  0  0  0  0  0
    5.2500   -6.4952    0.0000 C   0  0  0  0  0  0  0  0  0  0  0  0
    6.0000   -7.7942    0.0000 C   0  0  0  0  0  0  0  0  0  0  0  0
    7.5000   -7.7942    0.0000 C   0  0  0  0  0  0  0  0  0  0  0  0
    8.2500   -9.0933    0.0000 C   0  0  0  0  0  0  0  0  0  0  0  0
    9.7500   -9.0933    0.0000 C   0  0  0  0  0  0  0  0  0  0  0  0
   10.5000   -7.7942    0.0000 C   0  0  0  0  0  0  0  0  0  0  0  0
    9.7500   -6.4952    0.0000 C   0  0  0  0  0  0  0  0  0  0  0  0
    8.2500   -6.4952    0.0000 C   0  0  0  0  0  0  0  0  0  0  0  0
    3.7500   -6.4952    0.0000 N   0  0  0  0  0  0  0  0  0  0  0  0
    3.0000   -5.1962    0.0000 C   0  0  0  0  0  0  0  0  0  0  0  0
    3.7500   -3.8971    0.0000 O   0  0  0  0  0  0  0  0  0  0  0  0
    1.5000   -5.1962    0.0000 C   0  0  0  0  0  0  0  0  0  0  0  0
    0.7500   -6.4952    0.0000 C   0  0  0  0  0  0  0  0  0  0  0  0
    1.5000   -7.7942    0.0000 C   0  0  0  0  0  0  0  0  0  0  0  0
    0.7500   -9.0933    0.0000 C   0  0  0  0  0  0  0  0  0  0  0  0
    1.5000  -10.3923    0.0000 C   0  0  0  0  0  0  0  0  0  0  0  0
    3.0000  -10.3923    0.0000 C   0  0  0  0  0  0  0  0  0  0  0  0
    3.7500   -9.0933    0.0000 C   0  0  0  0  0  0  0  0  0  0  0  0
    3.0000   -7.7942    0.0000 C   0  0  0  0  0  0  0  0  0  0  0  0
    0.7500   -3.8971    0.0000 C   0  0  0  0  0  0  0  0  0  0  0  0
   -0.7500   -3.8971    0.0000 O   0  0  0  0  0  0  0  0  0  0  0  0
    1.5000   -2.5981    0.0000 N   0  0  0  0  0  0  0  0  0  0  0  0
    0.7500   -1.2990    0.0000 C   0  0  0  0  0  0  0  0  0  0  0  0
    1.5000    0.0000    0.0000 C   0  0  0  0  0  0  0  0  0  0  0  0
    0.7500    1.2990    0.0000 C   0  0  0  0  0  0  0  0  0  0  0  0
   -0.7500    1.2990    0.0000 C   0  0  0  0  0  0  0  0  0  0  0  0
   -1.5000    0.0000    0.0000 C   0  0  0  0  0  0  0  0  0  0  0  0
   -0.7500   -1.2990    0.0000 C   0  0  0  0  0  0  0  0  0  0  0  0
   -0.0000   -0.0000    0.0000 C   0  0  0  0  0  0  0  0  0  0  0  0
    0.7500   -1.2990    0.0000 C   0  0  0  0  0  0  0  0  0  0  0  0
    2.2500   -1.2990    0.0000 O   0  0  0  0  0  0  0  0  0  0  0  0
   -0.0000   -2.5981    0.0000 N   0  0  0  0  0  0  0  0  0  0  0  0
    0.7500   -3.8971    0.0000 C   0  0  0  0  0  0  0  0  0  0  0  0
   -0.0000   -5.1962    0.0000 C   0  0  0  0  0  0  0  0  0  0  0  0
    0.7500   -6.4952    0.0000 C   0  0  0  0  0  0  0  0  0  0  0  0
   -0.0000   -7.7942    0.0000 C   0  0  0  0  0  0  0  0  0  0  0  0
    0.7500   -9.0933    0.0000 C   0  0  0  0  0  0  0  0  0  0  0  0
    2.2500   -9.0933    0.0000 C   0  0  0  0  0  0  0  0  0  0  0  0
    3.0000   -7.7942    0.0000 C   0  0  0  0  0  0  0  0  0  0  0  0
    2.2500   -6.4952    0.0000 C   0  0  0  0  0  0  0  0  0  0  0  0
    2.2500   -3.8971    0.0000 C   0  0  0  0  0  0  0  0  0  0  0  0
    3.0000   -2.5981    0.0000 O   0  0  0  0  0  0  0  0  0  0  0  0
    3.0000   -5.1962    0.0000 N   0  0  0  0  0  0  0  0  0  0  0  0
    4.5000   -5.1962    0.0000 C   0  0  0  0  0  0  0  0  0  0  0  0
    5.2500   -6.4952    0.0000 C   0  0  0  0  0  0  0  0  0  0  0  0
    6.7500   -6.4952    0.0000 C   0  0  0  0  0  0  0  0  0  0  0  0
    7.5000   -7.7942    0.0000 C   0  0  0  0  0  0  0  0  0  0  0  0
    9.0000   -7.7942    0.0000 C   0  0  0  0  0  0  0  0  0  0  0  0
    9.7500   -6.4952    0.0000 C   0  0  0  0  0  0  0  0  0  0  0  0
    9.0000   -5.1962    0.0000 C   0  0  0  0  0  0  0  0  0  0  0  0
    7.5000   -5.1962    0.0000 C   0  0  0  0  0  0  0  0  0  0  0  0
    5.2500   -3.8971    0.0000 C   0  0  0  0  0  0  0  0  0  0  0  0
    4.5000   -2.5981    0.0000 O   0  0  0  0  0  0  0  0  0  0  0  0
    6.7500   -3.8971    0.0000 O   0  0  0  0  0  0  0  0  0  0  0  0
  1  2  2  0
  2  3  1  0
  2  4  1  0
  4  5  1  0
  5  6  1  0
  6  7  2  0
  7  8  1  0
  8  9  2  0
  9 10  1  0
 10 11  2  0
  4 12  1  0
 12 13  1  0
 13 14  2  0
 13 15  1  0
 15 16  1  0
 16 17  1  0
 17 18  2  0
 18 19  1  0
 19 20  2  0
 20 21  1  0
 21 22  2  0
 15 23  1  0
 23 24  1  0
 24 25  2  0
 24 26  1  0
 26 27  1  0
 27 28  1  0
 28 29  2  0
 29 30  1  0
 30 31  2  0
 31 32  1  0
 32 33  2  0
 26 34  1  0
 34 35  2  0
 34 36  1  0
 36 37  1  0
 37 38  1  0
 38 39  1  0
 39 40  1  0
 40 41  1  0
 41 42  1  0
 41 43  1  0
 43 44  1  0
 44 45  2  0
 44 46  1  0
 46 47  1  0
 47 48  1  0
 48 49  1  0
 49 50  2  0
 50 51  1  0
 51 52  2  0
 52 53  1  0
 53 54  2  0
 47 55  1  0
 55 56  2  0
 55 57  1  0
 57 58  1  0
 58 59  1  0
 59 60  1  0
 60 61  2  0
 61 62  1  0
 62 63  2  0
 63 64  1  0
 64 65  2  0
 58 66  1  0
 66 67  2  0
 66 68  1  0
 11  6  1  0
 22 17  1  0
 33 28  1  0
 42 37  1  0
 54 49  1  0
 65 60  1  0
 43 39  1  0
M  END
>  <Title>  (56) 
idAAIRgen6

$$$$

     RDKit          2D

 70 76  0  0  0  0  0  0  0  0999 V2000
    5.5866   -3.7542    0.0000 O   0  0  0  0  0  0  0  0  0  0  0  0
    6.0000   -5.1962    0.0000 C   0  0  0  0  0  0  0  0  0  0  0  0
    7.4888   -5.0133    0.0000 O   0  0  0  0  0  0  0  0  0  0  0  0
    5.2500   -6.4952    0.0000 C   0  0  0  0  0  0  0  0  0  0  0  0
    6.0000   -7.7942    0.0000 C   0  0  0  0  0  0  0  0  0  0  0  0
    7.5000   -7.7942    0.0000 C   0  0  0  0  0  0  0  0  0  0  0  0
    8.2500   -9.0933    0.0000 C   0  0  0  0  0  0  0  0  0  0  0  0
    9.7500   -9.0933    0.0000 C   0  0  0  0  0  0  0  0  0  0  0  0
   10.5000   -7.7942    0.0000 C   0  0  0  0  0  0  0  0  0  0  0  0
    9.7500   -6.4952    0.0000 C   0  0  0  0  0  0  0  0  0  0  0  0
    8.2500   -6.4952    0.0000 C   0  0  0  0  0  0  0  0  0  0  0  0
    3.7500   -6.4952    0.0000 N   0  0  0  0  0  0  0  0  0  0  0  0
    3.0000   -5.1962    0.0000 C   0  0  0  0  0  0  0  0  0  0  0  0
    3.7500   -3.8971    0.0000 O   0  0  0  0  0  0  0  0  0  0  0  0
    1.5000   -5.1962    0.0000 C   0  0  0  0  0  0  0  0  0  0  0  0
    0.7500   -6.4952    0.0000 C   0  0  0  0  0  0  0  0  0  0  0  0
    1.5000   -7.7942    0.0000 C   0  0  0  0  0  0  0  0  0  0  0  0
    0.7500   -9.0933    0.0000 C   0  0  0  0  0  0  0  0  0  0  0  0
    1.5000  -10.3923    0.0000 C   0  0  0  0  0  0  0  0  0  0  0  0
    3.0000  -10.3923    0.0000 C   0  0  0  0  0  0  0  0  0  0  0  0
    3.7500   -9.0933    0.0000 C   0  0  0  0  0  0  0  0  0  0  0  0
    3.0000   -7.7942    0.0000 C   0  0  0  0  0  0  0  0  0  0  0  0
    0.7500   -3.8971    0.0000 C   0  0  0  0  0  0  0  0  0  0  0  0
   -0.7500   -3.8971    0.0000 O   0  0  0  0  0  0  0  0  0  0  0  0
    1.5000   -2.5981    0.0000 N   0  0  0  0  0  0  0  0  0  0  0  0
    0.7500   -1.2990    0.0000 C   0  0  0  0  0  0  0  0  0  0  0  0
    1.5000    0.0000    0.0000 C   0  0  0  0  0  0  0  0  0  0  0  0
    0.7500    1.2990    0.0000 C   0  0  0  0  0  0  0  0  0  0  0  0
   -0.7500    1.2990    0.0000 C   0  0  0  0  0  0  0  0  0  0  0  0
   -1.5000    0.0000    0.0000 C   0  0  0  0  0  0  0  0  0  0  0  0
   -0.7500   -1.2990    0.0000 C   0  0  0  0  0  0  0  0  0  0  0  0
   -0.0000   -0.0000    0.0000 C   0  0  0  0  0  0  0  0  0  0  0  0
    0.7500   -1.2990    0.0000 C   0  0  0  0  0  0  0  0  0  0  0  0
    2.2500   -1.2990    0.0000 O   0  0  0  0  0  0  0  0  0  0  0  0
   -0.0000   -2.5981    0.0000 N   0  0  0  0  0  0  0  0  0  0  0  0
    0.7500   -3.8971    0.0000 C   0  0  0  0  0  0  0  0  0  0  0  0
   -0.0000   -5.1962    0.0000 C   0  0  0  0  0  0  0  0  0  0  0  0
    0.7500   -6.4952    0.0000 C   0  0  0  0  0  0  0  0  0  0  0  0
   -0.0000   -7.7942    0.0000 C   0  0  0  0  0  0  0  0  0  0  0  0
    0.7500   -9.0933    0.0000 C   0  0  0  0  0  0  0  0  0  0  0  0
    2.2500   -9.0933    0.0000 C   0  0  0  0  0  0  0  0  0  0  0  0
    3.0000   -7.7942    0.0000 C   0  0  0  0  0  0  0  0  0  0  0  0
    2.2500   -6.4952    0.0000 C   0  0  0  0  0  0  0  0  0  0  0  0
    2.2500   -3.8971    0.0000 C   0  0  0  0  0  0  0  0  0  0  0  0
    3.0000   -2.5981    0.0000 O   0  0  0  0  0  0  0  0  0  0  0  0
    3.0000   -5.1962    0.0000 N   0  0  0  0  0  0  0  0  0  0  0  0
    4.5000   -5.1962    0.0000 C   0  0  0  0  0  0  0  0  0  0  0  0
    5.2500   -6.4952    0.0000 C   0  0  0  0  0  0  0  0  0  0  0  0
    6.7500   -6.4952    0.0000 C   0  0  0  0  0  0  0  0  0  0  0  0
    7.5000   -7.7942    0.0000 C   0  0  0  0  0  0  0  0  0  0  0  0
    9.0000   -7.7942    0.0000 C   0  0  0  0  0  0  0  0  0  0  0  0
    9.7500   -6.4952    0.0000 C   0  0  0  0  0  0  0  0  0  0  0  0
    9.0000   -5.1962    0.0000 C   0  0  0  0  0  0  0  0  0  0  0  0
    7.5000   -5.1962    0.0000 C   0  0  0  0  0  0  0  0  0  0  0  0
    5.2500   -3.8971    0.0000 C   0  0  0  0  0  0  0  0  0  0  0  0
    4.5000   -2.5981    0.0000 O   0  0  0  0  0  0  0  0  0  0  0  0
    6.7500   -3.8971    0.0000 C   0  0  0  0  0  0  0  0  0  0  0  0
    7.9158   -4.8410    0.0000 O   0  0  0  0  0  0  0  0  0  0  0  0
    7.5000   -2.5981    0.0000 N   0  0  0  0  0  0  0  0  0  0  0  0
    9.0000   -2.5981    0.0000 C   0  0  0  0  0  0  0  0  0  0  0  0
    9.7500   -1.2990    0.0000 C   0  0  0  0  0  0  0  0  0  0  0  0
   11.2500   -1.2990    0.0000 C   0  0  0  0  0  0  0  0  0  0  0  0
   12.0000   -2.5981    0.0000 C   0  0  0  0  0  0  0  0  0  0  0  0
   13.5000   -2.5981    0.0000 C   0  0  0  0  0  0  0  0  0  0  0  0
   14.2500   -1.2990    0.0000 C   0  0  0  0  0  0  0  0  0  0  0  0
   13.5000   -0.0000    0.0000 C   0  0  0  0  0  0  0  0  0  0  0  0
   12.0000   -0.0000    0.0000 C   0  0  0  0  0  0  0  0  0  0  0  0
    9.7500   -3.8971    0.0000 C   0  0  0  0  0  0  0  0  0  0  0  0
    9.3366   -5.3390    0.0000 O   0  0  0  0  0  0  0  0  0  0  0  0
   11.2500   -3.8971    0.0000 O   0  0  0  0  0  0  0  0  0  0  0  0
  1  2  2  0
  2  3  1  0
  2  4  1  0
  4  5  1  0
  5  6  1  0
  6  7  2  0
  7  8  1  0
  8  9  2  0
  9 10  1  0
 10 11  2  0
  4 12  1  0
 12 13  1  0
 13 14  2  0
 13 15  1  0
 15 16  1  0
 16 17  1  0
 17 18  2  0
 18 19  1  0
 19 20  2  0
 20 21  1  0
 21 22  2  0
 15 23  1  0
 23 24  2  0
 23 25  1  0
 25 26  1  0
 26 27  1  0
 27 28  1  0
 28 29  1  0
 29 30  1  0
 30 31  1  0
 30 32  1  0
 32 33  1  0
 33 34  2  0
 33 35  1  0
 35 36  1  0
 36 37  1  0
 37 38  1  0
 38 39  2  0
 39 40  1  0
 40 41  2  0
 41 42  1  0
 42 43  2  0
 36 44  1  0
 44 45  2  0
 44 46  1  0
 46 47  1  0
 47 48  1  0
 48 49  1  0
 49 50  2  0
 50 51  1  0
 51 52  2  0
 52 53  1  0
 53 54  2  0
 47 55  1  0
 55 56  1  0
 55 57  1  0
 57 58  2  0
 57 59  1  0
 59 60  1  0
 60 61  1  0
 61 62  1  0
 62 63  2  0
 63 64  1  0
 64 65  2  0
 65 66  1  0
 66 67  2  0
 60 68  1  0
 68 69  2  0
 68 70  1  0
 11  6  1  0
 22 17  1  0
 31 26  1  0
 43 38  1  0
 54 49  1  0
 67 62  1  0
 32 28  1  0
M  END
>  <Title>  (57) 
idAAISgen6

$$$$

     RDKit          2D

 44 49  0  0  0  0  0  0  0  0999 V2000
    0.2839    8.6343    0.0000 C   0  0  0  0  0  0  0  0  0  0  0  0
   -0.6750    8.4127    0.0000 C   0  0  0  0  0  0  0  0  0  0  0  0
   -2.1748    8.4386    0.0000 C   0  0  0  0  0  0  0  0  0  0  0  0
   -0.6491    9.9125    0.0000 C   0  0  0  0  0  0  0  0  0  0  0  0
   -0.7009    6.9129    0.0000 C   0  0  0  0  0  0  0  0  0  0  0  0
   -2.1633    6.5792    0.0000 C   0  0  0  0  0  0  0  0  0  0  0  0
   -3.3030    5.6040    0.0000 C   0  0  0  0  0  0  0  0  0  0  0  0
   -3.8591    4.2109    0.0000 C   0  0  0  0  0  0  0  0  0  0  0  0
   -3.7040    2.7189    0.0000 C   0  0  0  0  0  0  0  0  0  0  0  0
   -2.8733    1.4699    0.0000 C   0  0  0  0  0  0  0  0  0  0  0  0
   -1.5574    0.7500    0.0000 C   0  0  0  0  0  0  0  0  0  0  0  0
   -2.4247    0.9298    0.0000 C   0  0  0  0  0  0  0  0  0  0  0  0
   -0.3846    1.6852    0.0000 C   0  0  0  0  0  0  0  0  0  0  0  0
   -0.7184    3.1476    0.0000 C   0  0  0  0  0  0  0  0  0  0  0  0
    0.3812    4.1679    0.0000 C   0  0  0  0  0  0  0  0  0  0  0  0
    0.0474    5.6303    0.0000 C   0  0  0  0  0  0  0  0  0  0  0  0
    1.1469    6.6505    0.0000 C   0  0  0  0  0  0  0  0  0  0  0  0
    0.8132    8.1129    0.0000 C   0  0  0  0  0  0  0  0  0  0  0  0
   -0.6202    8.5551    0.0000 C   0  0  0  0  0  0  0  0  0  0  0  0
   -1.7198    7.5348    0.0000 C   0  0  0  0  0  0  0  0  0  0  0  0
    1.1179    5.8746    0.0000 C   0  0  0  0  0  0  0  0  0  0  0  0
    2.5803    6.2084    0.0000 C   0  0  0  0  0  0  0  0  0  0  0  0
    2.2465    7.6708    0.0000 C   0  0  0  0  0  0  0  0  0  0  0  0
    1.4807    5.1881    0.0000 C   0  0  0  0  0  0  0  0  0  0  0  0
   -1.3860    6.0724    0.0000 C   0  0  0  0  0  0  0  0  0  0  0  0
    1.0777    1.3515    0.0000 C   0  0  0  0  0  0  0  0  0  0  0  0
    2.2690    2.2630    0.0000 C   0  0  0  0  0  0  0  0  0  0  0  0
    1.7286    0.0000    0.0000 C   0  0  0  0  0  0  0  0  0  0  0  0
    1.0777   -1.3515    0.0000 C   0  0  0  0  0  0  0  0  0  0  0  0
   -0.3846   -1.6852    0.0000 C   0  0  0  0  0  0  0  0  0  0  0  0
   -1.5574   -0.7500    0.0000 C   0  0  0  0  0  0  0  0  0  0  0  0
   -2.2082   -2.1015    0.0000 C   0  0  0  0  0  0  0  0  0  0  0  0
   -3.0198   -0.4162    0.0000 C   0  0  0  0  0  0  0  0  0  0  0  0
    2.1557    2.6177    0.0000 C   0  0  0  0  0  0  0  0  0  0  0  0
    3.5488    2.0617    0.0000 C   0  0  0  0  0  0  0  0  0  0  0  0
    4.7269    2.9902    0.0000 C   0  0  0  0  0  0  0  0  0  0  0  0
    6.1201    2.4341    0.0000 C   0  0  0  0  0  0  0  0  0  0  0  0
    7.3888    3.2344    0.0000 C   0  0  0  0  0  0  0  0  0  0  0  0
    8.5419    2.2751    0.0000 C   0  0  0  0  0  0  0  0  0  0  0  0
    7.9859    0.8819    0.0000 C   0  0  0  0  0  0  0  0  0  0  0  0
    6.4891    0.9802    0.0000 C   0  0  0  0  0  0  0  0  0  0  0  0
    2.3622    4.1035    0.0000 C   0  0  0  0  0  0  0  0  0  0  0  0
    1.8545    5.5150    0.0000 C   0  0  0  0  0  0  0  0  0  0  0  0
    0.7491    6.5289    0.0000 C   0  0  0  0  0  0  0  0  0  0  0  0
  1  2  1  0
  2  3  1  0
  2  4  1  0
  2  5  1  0
  5  6  1  0
  6  7  1  0
  7  8  1  0
  8  9  1  0
  9 10  1  0
 10 11  1  0
 11 12  1  0
 11 13  1  0
 13 14  1  0
 14 15  1  0
 15 16  1  0
 16 17  1  0
 17 18  1  0
 18 19  1  0
 19 20  1  0
 20 21  1  0
 21 22  1  0
 22 23  1  0
 22 24  1  0
 20 25  1  0
 13 26  1  0
 26 27  1  0
 26 28  1  0
 28 29  1  0
 29 30  1  0
 30 31  1  0
 31 32  1  0
 31 33  1  0
 26 34  1  0
 34 35  1  0
 35 36  1  0
 36 37  1  0
 37 38  1  0
 38 39  1  0
 39 40  1  0
 40 41  1  0
 34 42  1  0
 42 43  1  0
 43 44  1  0
 44  5  1  0
 31 11  1  0
 41 37  1  0
 24 16  1  0
 25 16  1  0
 23 18  1  0
M  END
>  <Title>  (58) 
idAAITgen6

$$$$

     RDKit          2D

 64 71  0  0  0  0  0  0  0  0999 V2000
   -4.6528   -2.6992    0.0000 O   0  0  0  0  0  0  0  0  0  0  0  0
   -3.7500   -3.8971    0.0000 C   0  0  0  0  0  0  0  0  0  0  0  0
   -2.2500   -3.8971    0.0000 N   0  0  0  0  0  0  0  0  0  0  0  0
   -1.5000   -2.5981    0.0000 C   0  0  0  0  0  0  0  0  0  0  0  0
   -0.0000   -2.5981    0.0000 C   0  0  0  0  0  0  0  0  0  0  0  0
    0.7500   -1.2990    0.0000 C   0  0  0  0  0  0  0  0  0  0  0  0
    1.5000    0.0000    0.0000 C   0  0  0  0  0  0  0  0  0  0  0  0
    0.7500    1.2990    0.0000 C   0  0  0  0  0  0  0  0  0  0  0  0
   -0.7500    1.2990    0.0000 C   0  0  0  0  0  0  0  0  0  0  0  0
   -1.5000    0.0000    0.0000 C   0  0  0  0  0  0  0  0  0  0  0  0
   -2.2500   -1.2990    0.0000 C   0  0  0  0  0  0  0  0  0  0  0  0
   -0.7500   -1.2990    0.0000 N   0  0  0  0  0  0  0  0  0  0  0  0
   -1.5000   -2.5981    0.0000 C   0  0  0  0  0  0  0  0  0  0  0  0
   -3.0000   -2.5981    0.0000 C   0  0  0  0  0  0  0  0  0  0  0  0
   -3.7500   -3.8971    0.0000 C   0  0  0  0  0  0  0  0  0  0  0  0
   -5.2500   -3.8971    0.0000 C   0  0  0  0  0  0  0  0  0  0  0  0
   -6.0000   -5.1962    0.0000 C   0  0  0  0  0  0  0  0  0  0  0  0
   -5.2500   -6.4952    0.0000 C   0  0  0  0  0  0  0  0  0  0  0  0
   -3.7500   -6.4952    0.0000 C   0  0  0  0  0  0  0  0  0  0  0  0
   -3.0000   -5.1962    0.0000 C   0  0  0  0  0  0  0  0  0  0  0  0
   -4.5000   -5.1962    0.0000 C   0  0  0  0  0  0  0  0  0  0  0  0
   -6.0000   -5.1962    0.0000 C   0  0  0  0  0  0  0  0  0  0  0  0
   -6.7500   -6.4952    0.0000 C   0  0  0  0  0  0  0  0  0  0  0  0
   -7.0619   -7.9624    0.0000 C   0  0  0  0  0  0  0  0  0  0  0  0
   -5.7628   -8.7124    0.0000 C   0  0  0  0  0  0  0  0  0  0  0  0
   -4.6481   -7.7087    0.0000 C   0  0  0  0  0  0  0  0  0  0  0  0
   -3.7500   -6.4952    0.0000 C   0  0  0  0  0  0  0  0  0  0  0  0
   -5.2582   -6.3384    0.0000 C   0  0  0  0  0  0  0  0  0  0  0  0
   -4.5082   -5.0394    0.0000 C   0  0  0  0  0  0  0  0  0  0  0  0
   -5.5503   -3.9604    0.0000 O   0  0  0  0  0  0  0  0  0  0  0  0
   -3.0082   -5.0394    0.0000 N   0  0  0  0  0  0  0  0  0  0  0  0
   -2.2582   -3.7403    0.0000 C   0  0  0  0  0  0  0  0  0  0  0  0
   -0.7582   -3.7403    0.0000 C   0  0  0  0  0  0  0  0  0  0  0  0
   -0.0082   -2.4413    0.0000 C   0  0  0  0  0  0  0  0  0  0  0  0
    1.4918   -2.4413    0.0000 C   0  0  0  0  0  0  0  0  0  0  0  0
    2.2418   -1.1422    0.0000 C   0  0  0  0  0  0  0  0  0  0  0  0
    1.4918    0.1568    0.0000 C   0  0  0  0  0  0  0  0  0  0  0  0
   -0.0082    0.1568    0.0000 C   0  0  0  0  0  0  0  0  0  0  0  0
   -0.7582   -1.1422    0.0000 C   0  0  0  0  0  0  0  0  0  0  0  0
   -3.0082   -2.4413    0.0000 C   0  0  0  0  0  0  0  0  0  0  0  0
   -4.4970   -2.2584    0.0000 O   0  0  0  0  0  0  0  0  0  0  0  0
   -2.2582   -1.1422    0.0000 N   0  0  0  0  0  0  0  0  0  0  0  0
   -3.0082    0.1568    0.0000 C   0  0  0  0  0  0  0  0  0  0  0  0
   -2.2582    1.4558    0.0000 C   0  0  0  0  0  0  0  0  0  0  0  0
   -3.0082    2.7549    0.0000 C   0  0  0  0  0  0  0  0  0  0  0  0
   -2.2582    4.0539    0.0000 C   0  0  0  0  0  0  0  0  0  0  0  0
   -3.0082    5.3529    0.0000 C   0  0  0  0  0  0  0  0  0  0  0  0
   -4.5082    5.3529    0.0000 C   0  0  0  0  0  0  0  0  0  0  0  0
   -5.2582    4.0539    0.0000 C   0  0  0  0  0  0  0  0  0  0  0  0
   -4.5082    2.7549    0.0000 C   0  0  0  0  0  0  0  0  0  0  0  0
   -4.5082    0.1568    0.0000 C   0  0  0  0  0  0  0  0  0  0  0  0
   -5.2582   -1.1422    0.0000 O   0  0  0  0  0  0  0  0  0  0  0  0
   -5.2582    1.4558    0.0000 N   0  0  0  0  0  0  0  0  0  0  0  0
   -6.7582    1.4558    0.0000 C   0  0  0  0  0  0  0  0  0  0  0  0
   -7.5082    2.7549    0.0000 C   0  0  0  0  0  0  0  0  0  0  0  0
   -9.0082    2.7549    0.0000 C   0  0  0  0  0  0  0  0  0  0  0  0
   -9.7582    4.0539    0.0000 C   0  0  0  0  0  0  0  0  0  0  0  0
  -11.2582    4.0539    0.0000 C   0  0  0  0  0  0  0  0  0  0  0  0
  -12.0082    2.7549    0.0000 C   0  0  0  0  0  0  0  0  0  0  0  0
  -11.2582    1.4558    0.0000 C   0  0  0  0  0  0  0  0  0  0  0  0
   -9.7582    1.4558    0.0000 C   0  0  0  0  0  0  0  0  0  0  0  0
   -7.5082    0.1568    0.0000 C   0  0  0  0  0  0  0  0  0  0  0  0
   -6.7582   -1.1422    0.0000 O   0  0  0  0  0  0  0  0  0  0  0  0
   -9.0082    0.1568    0.0000 O   0  0  0  0  0  0  0  0  0  0  0  0
  1  2  2  0
  2  3  1  0
  3  4  1  0
  4  5  1  0
  5  6  1  0
  6  7  1  0
  7  8  1  0
  8  9  1  0
  9 10  1  0
 10 11  1  0
 10 12  1  0
 12 13  1  0
 13 14  1  0
 14 15  1  0
 15 16  2  0
 16 17  1  0
 17 18  2  0
 18 19  1  0
 19 20  2  0
  2 21  1  0
 21 22  1  0
 22 23  1  0
 23 24  1  0
 24 25  1  0
 25 26  1  0
 26 27  1  0
 26 28  1  0
 28 29  1  0
 29 30  2  0
 29 31  1  0
 31 32  1  0
 32 33  1  0
 33 34  1  0
 34 35  2  0
 35 36  1  0
 36 37  2  0
 37 38  1  0
 38 39  2  0
 32 40  1  0
 40 41  2  0
 40 42  1  0
 42 43  1  0
 43 44  1  0
 44 45  1  0
 45 46  2  0
 46 47  1  0
 47 48  2  0
 48 49  1  0
 49 50  2  0
 43 51  1  0
 51 52  2  0
 51 53  1  0
 53 54  1  0
 54 55  1  0
 55 56  1  0
 56 57  2  0
 57 58  1  0
 58 59  2  0
 59 60  1  0
 60 61  2  0
 54 62  1  0
 62 63  2  0
 62 64  1  0
 11  4  1  0
 20 15  1  0
 27 21  1  0
 39 34  1  0
 50 45  1  0
 61 56  1  0
 12  6  1  0
 28 23  1  0
M  END
>  <Title>  (59) 
idAAIUgen6

$$$$

     RDKit          2D

 42 44  0  0  0  0  0  0  0  0999 V2000
    2.7970    2.8318    0.0000 C   0  0  0  0  0  0  0  0  0  0  0  0
    2.2395    1.4392    0.0000 C   0  0  0  0  0  0  0  0  0  0  0  0
    3.7378    1.3679    0.0000 C   0  0  0  0  0  0  0  0  0  0  0  0
    4.4251    0.0346    0.0000 C   0  0  0  0  0  0  0  0  0  0  0  0
    3.6142   -1.2273    0.0000 C   0  0  0  0  0  0  0  0  0  0  0  0
    4.3015   -2.5605    0.0000 C   0  0  0  0  0  0  0  0  0  0  0  0
    5.7998   -2.6319    0.0000 O   0  0  0  0  0  0  0  0  0  0  0  0
    3.4906   -3.8224    0.0000 C   0  0  0  0  0  0  0  0  0  0  0  0
    2.3204   -2.8840    0.0000 O   0  0  0  0  0  0  0  0  0  0  0  0
    2.4350   -4.8881    0.0000 C   0  0  0  0  0  0  0  0  0  0  0  0
    3.1223   -6.2214    0.0000 C   0  0  0  0  0  0  0  0  0  0  0  0
    4.6027   -5.9796    0.0000 C   0  0  0  0  0  0  0  0  0  0  0  0
    4.8303   -4.4970    0.0000 C   0  0  0  0  0  0  0  0  0  0  0  0
    5.9234   -0.0368    0.0000 C   0  0  0  0  0  0  0  0  0  0  0  0
    6.7344    1.2251    0.0000 O   0  0  0  0  0  0  0  0  0  0  0  0
    6.6108   -1.3700    0.0000 C   0  0  0  0  0  0  0  0  0  0  0  0
    8.1091   -1.4414    0.0000 O   0  0  0  0  0  0  0  0  0  0  0  0
    2.6621    0.0000    0.0000 C   0  0  0  0  0  0  0  0  0  0  0  0
    2.2395   -1.4392    0.0000 C   0  0  0  0  0  0  0  0  0  0  0  0
    1.1059   -2.4215    0.0000 C   0  0  0  0  0  0  0  0  0  0  0  0
   -0.3789   -2.6350    0.0000 C   0  0  0  0  0  0  0  0  0  0  0  0
   -1.7433   -2.0119    0.0000 C   0  0  0  0  0  0  0  0  0  0  0  0
   -2.5543   -0.7500    0.0000 C   0  0  0  0  0  0  0  0  0  0  0  0
   -2.5543    0.7500    0.0000 C   0  0  0  0  0  0  0  0  0  0  0  0
   -1.7433    2.0119    0.0000 C   0  0  0  0  0  0  0  0  0  0  0  0
   -0.3789    2.6350    0.0000 C   0  0  0  0  0  0  0  0  0  0  0  0
    1.1059    2.4215    0.0000 C   0  0  0  0  0  0  0  0  0  0  0  0
    1.7290    3.7860    0.0000 C   0  0  0  0  0  0  0  0  0  0  0  0
    0.8589    5.0078    0.0000 C   0  0  0  0  0  0  0  0  0  0  0  0
    2.2438    5.5842    0.0000 C   0  0  0  0  0  0  0  0  0  0  0  0
    2.8201    4.1994    0.0000 C   0  0  0  0  0  0  0  0  0  0  0  0
    1.6674    6.9691    0.0000 C   0  0  0  0  0  0  0  0  0  0  0  0
    3.6286    6.1606    0.0000 C   0  0  0  0  0  0  0  0  0  0  0  0
    0.6051    6.4862    0.0000 C   0  0  0  0  0  0  0  0  0  0  0  0
   -0.7089    7.2096    0.0000 C   0  0  0  0  0  0  0  0  0  0  0  0
   -0.6274    8.7073    0.0000 O   0  0  0  0  0  0  0  0  0  0  0  0
   -2.0938    6.6332    0.0000 C   0  0  0  0  0  0  0  0  0  0  0  0
   -2.5066    5.1911    0.0000 C   0  0  0  0  0  0  0  0  0  0  0  0
   -1.6365    3.9692    0.0000 C   0  0  0  0  0  0  0  0  0  0  0  0
   -0.1387    3.8877    0.0000 C   0  0  0  0  0  0  0  0  0  0  0  0
   -0.5370    3.1972    0.0000 C   0  0  0  0  0  0  0  0  0  0  0  0
    1.1754    3.1643    0.0000 C   0  0  0  0  0  0  0  0  0  0  0  0
  1  2  1  0
  2  3  1  0
  3  4  1  0
  4  5  1  0
  5  6  1  0
  6  7  1  0
  6  8  1  0
  8  9  1  0
  8 10  1  0
 10 11  1  0
 11 12  1  0
 12 13  1  0
  4 14  1  0
 14 15  1  0
 14 16  1  0
 16 17  1  0
  2 18  1  0
 18 19  1  0
 19 20  1  0
 20 21  1  0
 21 22  1  0
 22 23  1  0
 23 24  1  0
 24 25  1  0
 25 26  1  0
 26 27  1  0
 27 28  1  0
 28 29  1  0
 29 30  1  0
 30 31  1  0
 30 32  1  0
 30 33  1  0
 29 34  1  0
 34 35  1  0
 35 36  1  0
 35 37  1  0
 37 38  1  0
 38 39  1  0
 39 40  1  0
 40 41  1  0
 40 42  1  0
 27  2  1  0
 40 29  1  0
 13  8  1  0
M  END
>  <Title>  (60) 
idAAIVgen6

$$$$

     RDKit          2D

 60 65  0  0  0  0  0  0  0  0999 V2000
    2.2011    2.8161    0.0000 C   0  0  0  0  0  0  0  0  0  0  0  0
    1.6798    1.4095    0.0000 C   0  0  0  0  0  0  0  0  0  0  0  0
    3.1773    1.4968    0.0000 C   0  0  0  0  0  0  0  0  0  0  0  0
    3.6738    0.0813    0.0000 O   0  0  0  0  0  0  0  0  0  0  0  0
    3.8505    2.8372    0.0000 C   0  0  0  0  0  0  0  0  0  0  0  0
    5.3479    2.9244    0.0000 O   0  0  0  0  0  0  0  0  0  0  0  0
    6.0211    4.2649    0.0000 C   0  0  0  0  0  0  0  0  0  0  0  0
    7.5186    4.3521    0.0000 C   0  0  0  0  0  0  0  0  0  0  0  0
    8.1918    5.6925    0.0000 C   0  0  0  0  0  0  0  0  0  0  0  0
    7.3675    6.9458    0.0000 C   0  0  0  0  0  0  0  0  0  0  0  0
    5.8701    6.8586    0.0000 C   0  0  0  0  0  0  0  0  0  0  0  0
    5.1969    5.5181    0.0000 C   0  0  0  0  0  0  0  0  0  0  0  0
    6.6943    5.6053    0.0000 C   0  0  0  0  0  0  0  0  0  0  0  0
    6.0211    4.2649    0.0000 C   0  0  0  0  0  0  0  0  0  0  0  0
    4.5237    4.1777    0.0000 O   0  0  0  0  0  0  0  0  0  0  0  0
    6.8454    3.0116    0.0000 N   0  0  0  0  0  0  0  0  0  0  0  0
    6.1722    1.6712    0.0000 C   0  0  0  0  0  0  0  0  0  0  0  0
    6.9965    0.4180    0.0000 C   0  0  0  0  0  0  0  0  0  0  0  0
    6.3233   -0.9225    0.0000 C   0  0  0  0  0  0  0  0  0  0  0  0
    4.8258   -1.0097    0.0000 C   0  0  0  0  0  0  0  0  0  0  0  0
    4.1526   -2.3502    0.0000 C   0  0  0  0  0  0  0  0  0  0  0  0
    4.9769   -3.6034    0.0000 C   0  0  0  0  0  0  0  0  0  0  0  0
    6.4743   -3.5162    0.0000 C   0  0  0  0  0  0  0  0  0  0  0  0
    7.1475   -2.1757    0.0000 C   0  0  0  0  0  0  0  0  0  0  0  0
    4.6747    1.5840    0.0000 C   0  0  0  0  0  0  0  0  0  0  0  0
    3.5717    2.6005    0.0000 O   0  0  0  0  0  0  0  0  0  0  0  0
    4.0015    0.2435    0.0000 N   0  0  0  0  0  0  0  0  0  0  0  0
    2.5041    0.1563    0.0000 C   0  0  0  0  0  0  0  0  0  0  0  0
    1.8309   -1.1841    0.0000 C   0  0  0  0  0  0  0  0  0  0  0  0
    0.3334   -1.2714    0.0000 C   0  0  0  0  0  0  0  0  0  0  0  0
   -0.4908   -0.0181    0.0000 C   0  0  0  0  0  0  0  0  0  0  0  0
   -1.9883   -0.1053    0.0000 C   0  0  0  0  0  0  0  0  0  0  0  0
   -2.6615   -1.4458    0.0000 C   0  0  0  0  0  0  0  0  0  0  0  0
   -1.8372   -2.6990    0.0000 C   0  0  0  0  0  0  0  0  0  0  0  0
   -0.3398   -2.6118    0.0000 C   0  0  0  0  0  0  0  0  0  0  0  0
    1.6798    1.4095    0.0000 C   0  0  0  0  0  0  0  0  0  0  0  0
    2.1846    2.8221    0.0000 O   0  0  0  0  0  0  0  0  0  0  0  0
    0.1824    1.3223    0.0000 N   0  0  0  0  0  0  0  0  0  0  0  0
   -0.6419    2.5756    0.0000 C   0  0  0  0  0  0  0  0  0  0  0  0
   -2.1394    2.4883    0.0000 C   0  0  0  0  0  0  0  0  0  0  0  0
   -2.9636    3.7416    0.0000 C   0  0  0  0  0  0  0  0  0  0  0  0
   -2.2904    5.0820    0.0000 C   0  0  0  0  0  0  0  0  0  0  0  0
   -3.1147    6.3352    0.0000 C   0  0  0  0  0  0  0  0  0  0  0  0
   -4.6122    6.2480    0.0000 C   0  0  0  0  0  0  0  0  0  0  0  0
   -5.2854    4.9076    0.0000 C   0  0  0  0  0  0  0  0  0  0  0  0
   -4.4611    3.6544    0.0000 C   0  0  0  0  0  0  0  0  0  0  0  0
    0.0313    3.9160    0.0000 C   0  0  0  0  0  0  0  0  0  0  0  0
    1.5288    4.0032    0.0000 O   0  0  0  0  0  0  0  0  0  0  0  0
   -0.6341    5.2604    0.0000 O   0  0  0  0  0  0  0  0  0  0  0  0
    2.1929    0.0000    0.0000 C   0  0  0  0  0  0  0  0  0  0  0  0
    1.6798   -1.4095    0.0000 C   0  0  0  0  0  0  0  0  0  0  0  0
    0.3808   -2.1595    0.0000 C   0  0  0  0  0  0  0  0  0  0  0  0
   -1.0964   -1.8991    0.0000 C   0  0  0  0  0  0  0  0  0  0  0  0
   -2.0606   -0.7500    0.0000 C   0  0  0  0  0  0  0  0  0  0  0  0
   -3.4701   -1.2630    0.0000 O   0  0  0  0  0  0  0  0  0  0  0  0
   -2.0606    0.7500    0.0000 C   0  0  0  0  0  0  0  0  0  0  0  0
   -1.0964    1.8991    0.0000 C   0  0  0  0  0  0  0  0  0  0  0  0
   -1.8464    3.1981    0.0000 C   0  0  0  0  0  0  0  0  0  0  0  0
   -1.2604    4.5789    0.0000 O   0  0  0  0  0  0  0  0  0  0  0  0
    0.3808    2.1595    0.0000 C   0  0  0  0  0  0  0  0  0  0  0  0
  1  2  1  0
  2  3  1  0
  3  4  1  0
  3  5  1  0
  5  6  1  0
  6  7  1  0
  7  8  1  0
  8  9  1  0
  9 10  1  0
 10 11  1  0
 11 12  1  0
 11 13  1  0
 13 14  1  0
 14 15  2  0
 14 16  1  0
 16 17  1  0
 17 18  1  0
 18 19  1  0
 19 20  2  0
 20 21  1  0
 21 22  2  0
 22 23  1  0
 23 24  2  0
 17 25  1  0
 25 26  2  0
 25 27  1  0
 27 28  1  0
 28 29  1  0
 29 30  1  0
 30 31  2  0
 31 32  1  0
 32 33  2  0
 33 34  1  0
 34 35  2  0
 28 36  1  0
 36 37  2  0
 36 38  1  0
 38 39  1  0
 39 40  1  0
 40 41  1  0
 41 42  2  0
 42 43  1  0
 43 44  2  0
 44 45  1  0
 45 46  2  0
 39 47  1  0
 47 48  2  0
 47 49  1  0
  2 50  1  0
 50 51  1  0
 51 52  1  0
 52 53  1  0
 53 54  1  0
 54 55  1  0
 54 56  1  0
 56 57  1  0
 57 58  1  0
 58 59  1  0
 57 60  1  0
 60  2  1  0
 12  7  1  0
 24 19  1  0
 35 30  1  0
 46 41  1  0
 13  9  1  0
M  END
>  <Title>  (61) 
idAAIWgen6

$$$$

     RDKit          2D

 58 63  0  0  0  0  0  0  0  0999 V2000
   -4.6888    1.5942    0.0000 O   0  0  0  0  0  0  0  0  0  0  0  0
   -3.4031    2.3668    0.0000 C   0  0  0  0  0  0  0  0  0  0  0  0
   -3.2463    3.8586    0.0000 N   0  0  0  0  0  0  0  0  0  0  0  0
   -4.4598    4.7402    0.0000 C   0  0  0  0  0  0  0  0  0  0  0  0
   -4.3030    6.2320    0.0000 C   0  0  0  0  0  0  0  0  0  0  0  0
   -5.5165    7.1137    0.0000 C   0  0  0  0  0  0  0  0  0  0  0  0
   -5.3597    8.6055    0.0000 C   0  0  0  0  0  0  0  0  0  0  0  0
   -6.5733    9.4872    0.0000 C   0  0  0  0  0  0  0  0  0  0  0  0
   -7.9436    8.8771    0.0000 C   0  0  0  0  0  0  0  0  0  0  0  0
   -8.1004    7.3853    0.0000 C   0  0  0  0  0  0  0  0  0  0  0  0
   -6.8869    6.5036    0.0000 C   0  0  0  0  0  0  0  0  0  0  0  0
   -5.8301    4.1301    0.0000 C   0  0  0  0  0  0  0  0  0  0  0  0
   -5.9869    2.6383    0.0000 O   0  0  0  0  0  0  0  0  0  0  0  0
   -7.0436    5.0118    0.0000 N   0  0  0  0  0  0  0  0  0  0  0  0
   -8.4140    4.4017    0.0000 C   0  0  0  0  0  0  0  0  0  0  0  0
   -9.6275    5.2834    0.0000 C   0  0  0  0  0  0  0  0  0  0  0  0
  -10.9978    4.6733    0.0000 C   0  0  0  0  0  0  0  0  0  0  0  0
  -12.2113    5.5550    0.0000 C   0  0  0  0  0  0  0  0  0  0  0  0
  -13.5817    4.9449    0.0000 C   0  0  0  0  0  0  0  0  0  0  0  0
  -13.7384    3.4531    0.0000 C   0  0  0  0  0  0  0  0  0  0  0  0
  -12.5249    2.5714    0.0000 C   0  0  0  0  0  0  0  0  0  0  0  0
  -11.1546    3.1815    0.0000 C   0  0  0  0  0  0  0  0  0  0  0  0
   -8.5708    2.9099    0.0000 C   0  0  0  0  0  0  0  0  0  0  0  0
   -7.6066    1.7608    0.0000 O   0  0  0  0  0  0  0  0  0  0  0  0
   -9.7527    1.9864    0.0000 O   0  0  0  0  0  0  0  0  0  0  0  0
   -2.1895    1.4851    0.0000 C   0  0  0  0  0  0  0  0  0  0  0  0
   -0.8192    2.0952    0.0000 C   0  0  0  0  0  0  0  0  0  0  0  0
    0.3943    1.2135    0.0000 C   0  0  0  0  0  0  0  0  0  0  0  0
    1.2760    0.0000    0.0000 C   0  0  0  0  0  0  0  0  0  0  0  0
    0.3943   -1.2135    0.0000 C   0  0  0  0  0  0  0  0  0  0  0  0
   -1.0323   -0.7500    0.0000 C   0  0  0  0  0  0  0  0  0  0  0  0
   -2.3463   -0.0067    0.0000 C   0  0  0  0  0  0  0  0  0  0  0  0
   -1.0323    0.7500    0.0000 C   0  0  0  0  0  0  0  0  0  0  0  0
   -2.2458    1.6317    0.0000 C   0  0  0  0  0  0  0  0  0  0  0  0
   -3.6161    1.0216    0.0000 O   0  0  0  0  0  0  0  0  0  0  0  0
   -2.0890    3.1235    0.0000 N   0  0  0  0  0  0  0  0  0  0  0  0
   -3.3025    4.0051    0.0000 C   0  0  0  0  0  0  0  0  0  0  0  0
   -3.1458    5.4969    0.0000 C   0  0  0  0  0  0  0  0  0  0  0  0
   -4.3593    6.3786    0.0000 C   0  0  0  0  0  0  0  0  0  0  0  0
   -4.2025    7.8704    0.0000 C   0  0  0  0  0  0  0  0  0  0  0  0
   -5.4160    8.7521    0.0000 C   0  0  0  0  0  0  0  0  0  0  0  0
   -6.7863    8.1420    0.0000 C   0  0  0  0  0  0  0  0  0  0  0  0
   -6.9431    6.6502    0.0000 C   0  0  0  0  0  0  0  0  0  0  0  0
   -5.7296    5.7685    0.0000 C   0  0  0  0  0  0  0  0  0  0  0  0
   -4.6729    3.3950    0.0000 C   0  0  0  0  0  0  0  0  0  0  0  0
   -5.0103    1.9335    0.0000 O   0  0  0  0  0  0  0  0  0  0  0  0
   -5.8864    4.2767    0.0000 N   0  0  0  0  0  0  0  0  0  0  0  0
   -7.2567    3.6666    0.0000 C   0  0  0  0  0  0  0  0  0  0  0  0
   -8.4702    4.5483    0.0000 C   0  0  0  0  0  0  0  0  0  0  0  0
   -9.8406    3.9382    0.0000 C   0  0  0  0  0  0  0  0  0  0  0  0
  -11.0541    4.8199    0.0000 C   0  0  0  0  0  0  0  0  0  0  0  0
  -12.4244    4.2098    0.0000 C   0  0  0  0  0  0  0  0  0  0  0  0
  -12.5812    2.7180    0.0000 C   0  0  0  0  0  0  0  0  0  0  0  0
  -11.3677    1.8363    0.0000 C   0  0  0  0  0  0  0  0  0  0  0  0
   -9.9973    2.4464    0.0000 C   0  0  0  0  0  0  0  0  0  0  0  0
   -7.4135    2.1748    0.0000 C   0  0  0  0  0  0  0  0  0  0  0  0
   -6.2000    1.2931    0.0000 O   0  0  0  0  0  0  0  0  0  0  0  0
   -8.7838    1.5647    0.0000 O   0  0  0  0  0  0  0  0  0  0  0  0
  1  2  2  0
  2  3  1  0
  3  4  1  0
  4  5  1  0
  5  6  1  0
  6  7  2  0
  7  8  1  0
  8  9  2  0
  9 10  1  0
 10 11  2  0
  4 12  1  0
 12 13  2  0
 12 14  1  0
 14 15  1  0
 15 16  1  0
 16 17  1  0
 17 18  2  0
 18 19  1  0
 19 20  2  0
 20 21  1  0
 21 22  2  0
 15 23  1  0
 23 24  2  0
 23 25  1  0
  2 26  1  0
 26 27  1  0
 27 28  1  0
 28 29  1  0
 29 30  1  0
 30 31  1  0
 31 32  1  0
 31 33  1  0
 33 34  1  0
 34 35  2  0
 34 36  1  0
 36 37  1  0
 37 38  1  0
 38 39  1  0
 39 40  2  0
 40 41  1  0
 41 42  2  0
 42 43  1  0
 43 44  2  0
 37 45  1  0
 45 46  2  0
 45 47  1  0
 47 48  1  0
 48 49  1  0
 49 50  1  0
 50 51  2  0
 51 52  1  0
 52 53  2  0
 53 54  1  0
 54 55  2  0
 48 56  1  0
 56 57  2  0
 56 58  1  0
 11  6  1  0
 22 17  1  0
 32 26  1  0
 44 39  1  0
 55 50  1  0
 33 28  1  0
M  END
>  <Title>  (62) 
idAAIXgen6

$$$$

     RDKit          2D

 20 21  0  0  0  0  0  0  0  0999 V2000
    3.4598   -1.5000    0.0000 C   0  0  0  0  0  0  0  0  0  0  0  0
    3.4598    0.0000    0.0000 C   0  0  0  0  0  0  0  0  0  0  0  0
    3.6427    1.4888    0.0000 C   0  0  0  0  0  0  0  0  0  0  0  0
    4.9598    0.0000    0.0000 C   0  0  0  0  0  0  0  0  0  0  0  0
    1.9598    0.0000    0.0000 C   0  0  0  0  0  0  0  0  0  0  0  0
    1.3858   -1.3858    0.0000 C   0  0  0  0  0  0  0  0  0  0  0  0
   -0.0000   -1.9598    0.0000 C   0  0  0  0  0  0  0  0  0  0  0  0
   -1.3858   -1.3858    0.0000 C   0  0  0  0  0  0  0  0  0  0  0  0
   -2.4465   -2.4465    0.0000 C   0  0  0  0  0  0  0  0  0  0  0  0
   -3.8954   -2.0583    0.0000 C   0  0  0  0  0  0  0  0  0  0  0  0
   -4.9560   -3.1189    0.0000 C   0  0  0  0  0  0  0  0  0  0  0  0
   -4.5678   -4.5678    0.0000 C   0  0  0  0  0  0  0  0  0  0  0  0
   -3.1189   -4.9560    0.0000 C   0  0  0  0  0  0  0  0  0  0  0  0
   -2.0583   -3.8954    0.0000 C   0  0  0  0  0  0  0  0  0  0  0  0
   -1.9598    0.0000    0.0000 C   0  0  0  0  0  0  0  0  0  0  0  0
   -1.3858    1.3858    0.0000 C   0  0  0  0  0  0  0  0  0  0  0  0
    0.0000    1.9598    0.0000 C   0  0  0  0  0  0  0  0  0  0  0  0
    1.3858    1.3858    0.0000 C   0  0  0  0  0  0  0  0  0  0  0  0
    1.5816    2.8730    0.0000 C   0  0  0  0  0  0  0  0  0  0  0  0
    2.8380    1.7614    0.0000 C   0  0  0  0  0  0  0  0  0  0  0  0
  1  2  1  0
  2  3  1  0
  2  4  1  0
  2  5  1  0
  5  6  1  0
  6  7  1  0
  7  8  1  0
  8  9  1  0
  9 10  1  0
 10 11  1  0
 11 12  1  0
 12 13  1  0
 13 14  1  0
  8 15  1  0
 15 16  1  0
 16 17  1  0
 17 18  1  0
 18 19  1  0
 18 20  1  0
 18  5  1  0
 14  9  1  0
M  END
>  <Title>  (63) 
idAAIYgen6

$$$$

     RDKit          2D

 35 40  0  0  0  0  0  0  0  0999 V2000
    0.7644   -5.7652    0.0000 C   0  0  0  0  0  0  0  0  0  0  0  0
    2.1503   -5.1912    0.0000 C   0  0  0  0  0  0  0  0  0  0  0  0
    3.5361   -4.6172    0.0000 C   0  0  0  0  0  0  0  0  0  0  0  0
    2.7243   -6.5770    0.0000 C   0  0  0  0  0  0  0  0  0  0  0  0
    1.5762   -3.8054    0.0000 C   0  0  0  0  0  0  0  0  0  0  0  0
    2.3600   -2.5264    0.0000 C   0  0  0  0  0  0  0  0  0  0  0  0
    1.3858   -1.3858    0.0000 C   0  0  0  0  0  0  0  0  0  0  0  0
    1.9598    0.0000    0.0000 C   0  0  0  0  0  0  0  0  0  0  0  0
    1.3858    1.3858    0.0000 C   0  0  0  0  0  0  0  0  0  0  0  0
    2.4465    2.4465    0.0000 C   0  0  0  0  0  0  0  0  0  0  0  0
    3.8954    2.0583    0.0000 C   0  0  0  0  0  0  0  0  0  0  0  0
    4.9560    3.1189    0.0000 C   0  0  0  0  0  0  0  0  0  0  0  0
    4.7214    4.6004    0.0000 C   0  0  0  0  0  0  0  0  0  0  0  0
    6.0579    5.2814    0.0000 C   0  0  0  0  0  0  0  0  0  0  0  0
    7.1185    4.2208    0.0000 C   0  0  0  0  0  0  0  0  0  0  0  0
    6.4376    2.8843    0.0000 C   0  0  0  0  0  0  0  0  0  0  0  0
    0.0000    1.9598    0.0000 C   0  0  0  0  0  0  0  0  0  0  0  0
   -1.3858    1.3858    0.0000 C   0  0  0  0  0  0  0  0  0  0  0  0
   -1.9598    0.0000    0.0000 C   0  0  0  0  0  0  0  0  0  0  0  0
   -1.3858   -1.3858    0.0000 C   0  0  0  0  0  0  0  0  0  0  0  0
   -0.0000   -1.9598    0.0000 C   0  0  0  0  0  0  0  0  0  0  0  0
   -1.2135   -2.8415    0.0000 C   0  0  0  0  0  0  0  0  0  0  0  0
    0.1177   -3.4552    0.0000 C   0  0  0  0  0  0  0  0  0  0  0  0
   -1.0229   -4.4294    0.0000 C   0  0  0  0  0  0  0  0  0  0  0  0
   -2.4369   -3.9287    0.0000 C   0  0  0  0  0  0  0  0  0  0  0  0
   -3.5775   -4.9029    0.0000 C   0  0  0  0  0  0  0  0  0  0  0  0
   -4.9915   -4.4021    0.0000 C   0  0  0  0  0  0  0  0  0  0  0  0
   -6.1321   -5.3763    0.0000 C   0  0  0  0  0  0  0  0  0  0  0  0
   -5.8587   -6.8512    0.0000 C   0  0  0  0  0  0  0  0  0  0  0  0
   -4.4447   -7.3519    0.0000 C   0  0  0  0  0  0  0  0  0  0  0  0
   -4.2906   -4.0679    0.0000 C   0  0  0  0  0  0  0  0  0  0  0  0
   -5.2648   -2.9273    0.0000 C   0  0  0  0  0  0  0  0  0  0  0  0
   -6.4054   -3.9014    0.0000 C   0  0  0  0  0  0  0  0  0  0  0  0
   -3.8508   -3.4280    0.0000 C   0  0  0  0  0  0  0  0  0  0  0  0
   -3.3041   -6.3777    0.0000 C   0  0  0  0  0  0  0  0  0  0  0  0
  1  2  1  0
  2  3  1  0
  2  4  1  0
  2  5  1  0
  5  6  1  0
  6  7  1  0
  7  8  1  0
  8  9  1  0
  9 10  1  0
 10 11  1  0
 11 12  1  0
 12 13  1  0
 13 14  1  0
 14 15  1  0
 15 16  1  0
  9 17  1  0
 17 18  1  0
 18 19  1  0
 19 20  1  0
 20 21  1  0
 21 22  1  0
 21 23  1  0
 23 24  1  0
 24 25  1  0
 25 26  1  0
 26 27  1  0
 27 28  1  0
 28 29  1  0
 29 30  1  0
 30 31  1  0
 31 32  1  0
 32 33  1  0
 32 34  1  0
 30 35  1  0
 23  5  1  0
 34 26  1  0
 21  7  1  0
 35 26  1  0
 16 12  1  0
 33 28  1  0
M  END
>  <Title>  (64) 
idAAIZgen6

$$$$

     RDKit          2D

 73 81  0  0  0  0  0  0  0  0999 V2000
   -1.9605    4.6312    0.0000 O   0  0  0  0  0  0  0  0  0  0  0  0
   -3.2463    3.8586    0.0000 C   0  0  0  0  0  0  0  0  0  0  0  0
   -3.4031    2.3668    0.0000 N   0  0  0  0  0  0  0  0  0  0  0  0
   -2.1895    1.4851    0.0000 C   0  0  0  0  0  0  0  0  0  0  0  0
   -0.8192    2.0952    0.0000 C   0  0  0  0  0  0  0  0  0  0  0  0
    0.3943    1.2135    0.0000 C   0  0  0  0  0  0  0  0  0  0  0  0
    1.2760    0.0000    0.0000 C   0  0  0  0  0  0  0  0  0  0  0  0
    0.3943   -1.2135    0.0000 C   0  0  0  0  0  0  0  0  0  0  0  0
   -1.0323   -0.7500    0.0000 C   0  0  0  0  0  0  0  0  0  0  0  0
   -2.3463   -0.0067    0.0000 C   0  0  0  0  0  0  0  0  0  0  0  0
   -1.0323    0.7500    0.0000 N   0  0  0  0  0  0  0  0  0  0  0  0
   -2.2458    1.6317    0.0000 C   0  0  0  0  0  0  0  0  0  0  0  0
   -2.0890    3.1235    0.0000 C   0  0  0  0  0  0  0  0  0  0  0  0
   -3.3025    4.0051    0.0000 C   0  0  0  0  0  0  0  0  0  0  0  0
   -3.1458    5.4969    0.0000 C   0  0  0  0  0  0  0  0  0  0  0  0
   -4.3593    6.3786    0.0000 C   0  0  0  0  0  0  0  0  0  0  0  0
   -5.7296    5.7685    0.0000 C   0  0  0  0  0  0  0  0  0  0  0  0
   -5.8864    4.2767    0.0000 C   0  0  0  0  0  0  0  0  0  0  0  0
   -4.6729    3.3950    0.0000 C   0  0  0  0  0  0  0  0  0  0  0  0
   -4.4598    4.7402    0.0000 C   0  0  0  0  0  0  0  0  0  0  0  0
   -4.3030    6.2320    0.0000 C   0  0  0  0  0  0  0  0  0  0  0  0
   -5.5165    7.1137    0.0000 C   0  0  0  0  0  0  0  0  0  0  0  0
   -6.8869    6.5036    0.0000 C   0  0  0  0  0  0  0  0  0  0  0  0
   -7.0436    5.0118    0.0000 C   0  0  0  0  0  0  0  0  0  0  0  0
   -5.8301    4.1301    0.0000 C   0  0  0  0  0  0  0  0  0  0  0  0
   -5.6733    5.6219    0.0000 C   0  0  0  0  0  0  0  0  0  0  0  0
   -4.4598    4.7402    0.0000 C   0  0  0  0  0  0  0  0  0  0  0  0
   -3.2778    5.6638    0.0000 O   0  0  0  0  0  0  0  0  0  0  0  0
   -4.6166    3.2485    0.0000 N   0  0  0  0  0  0  0  0  0  0  0  0
   -3.4031    2.3668    0.0000 C   0  0  0  0  0  0  0  0  0  0  0  0
   -3.5599    0.8750    0.0000 C   0  0  0  0  0  0  0  0  0  0  0  0
   -2.3463   -0.0067    0.0000 C   0  0  0  0  0  0  0  0  0  0  0  0
   -2.5031   -1.4985    0.0000 C   0  0  0  0  0  0  0  0  0  0  0  0
   -1.2896   -2.3801    0.0000 C   0  0  0  0  0  0  0  0  0  0  0  0
    0.0807   -1.7700    0.0000 C   0  0  0  0  0  0  0  0  0  0  0  0
    0.2375   -0.2783    0.0000 C   0  0  0  0  0  0  0  0  0  0  0  0
   -0.9760    0.6034    0.0000 C   0  0  0  0  0  0  0  0  0  0  0  0
   -2.0328    2.9769    0.0000 C   0  0  0  0  0  0  0  0  0  0  0  0
   -1.6953    4.4384    0.0000 O   0  0  0  0  0  0  0  0  0  0  0  0
   -0.8192    2.0952    0.0000 N   0  0  0  0  0  0  0  0  0  0  0  0
    0.5511    2.7053    0.0000 C   0  0  0  0  0  0  0  0  0  0  0  0
    1.7646    1.8236    0.0000 C   0  0  0  0  0  0  0  0  0  0  0  0
    3.1349    2.4337    0.0000 C   0  0  0  0  0  0  0  0  0  0  0  0
    4.3485    1.5521    0.0000 C   0  0  0  0  0  0  0  0  0  0  0  0
    5.7188    2.1622    0.0000 C   0  0  0  0  0  0  0  0  0  0  0  0
    5.8756    3.6539    0.0000 C   0  0  0  0  0  0  0  0  0  0  0  0
    4.6620    4.5356    0.0000 C   0  0  0  0  0  0  0  0  0  0  0  0
    3.2917    3.9255    0.0000 C   0  0  0  0  0  0  0  0  0  0  0  0
    0.7079    4.1971    0.0000 C   0  0  0  0  0  0  0  0  0  0  0  0
   -0.5056    5.0788    0.0000 O   0  0  0  0  0  0  0  0  0  0  0  0
    2.0782    4.8072    0.0000 N   0  0  0  0  0  0  0  0  0  0  0  0
    2.2350    6.2990    0.0000 C   0  0  0  0  0  0  0  0  0  0  0  0
    3.6053    6.9091    0.0000 C   0  0  0  0  0  0  0  0  0  0  0  0
    3.7621    8.4009    0.0000 C   0  0  0  0  0  0  0  0  0  0  0  0
    5.1324    9.0110    0.0000 C   0  0  0  0  0  0  0  0  0  0  0  0
    5.2892   10.5028    0.0000 C   0  0  0  0  0  0  0  0  0  0  0  0
    4.0757   11.3844    0.0000 C   0  0  0  0  0  0  0  0  0  0  0  0
    2.7054   10.7743    0.0000 C   0  0  0  0  0  0  0  0  0  0  0  0
    2.5486    9.2825    0.0000 C   0  0  0  0  0  0  0  0  0  0  0  0
    1.0215    7.1807    0.0000 C   0  0  0  0  0  0  0  0  0  0  0  0
   -0.3488    6.5706    0.0000 O   0  0  0  0  0  0  0  0  0  0  0  0
    1.1783    8.6724    0.0000 N   0  0  0  0  0  0  0  0  0  0  0  0
   -0.0353    9.5541    0.0000 C   0  0  0  0  0  0  0  0  0  0  0  0
    0.1215   11.0459    0.0000 C   0  0  0  0  0  0  0  0  0  0  0  0
   -1.0920   11.9276    0.0000 C   0  0  0  0  0  0  0  0  0  0  0  0
   -0.9352   13.4194    0.0000 C   0  0  0  0  0  0  0  0  0  0  0  0
   -2.1487   14.3010    0.0000 C   0  0  0  0  0  0  0  0  0  0  0  0
   -3.5190   13.6909    0.0000 C   0  0  0  0  0  0  0  0  0  0  0  0
   -3.6758   12.1992    0.0000 C   0  0  0  0  0  0  0  0  0  0  0  0
   -2.4623   11.3175    0.0000 C   0  0  0  0  0  0  0  0  0  0  0  0
   -1.4056    8.9440    0.0000 C   0  0  0  0  0  0  0  0  0  0  0  0
   -1.5624    7.4522    0.0000 O   0  0  0  0  0  0  0  0  0  0  0  0
   -2.6191    9.8257    0.0000 O   0  0  0  0  0  0  0  0  0  0  0  0
  1  2  2  0
  2  3  1  0
  3  4  1  0
  4  5  1  0
  5  6  1  0
  6  7  1  0
  7  8  1  0
  8  9  1  0
  9 10  1  0
  9 11  1  0
 11 12  1  0
 12 13  1  0
 13 14  1  0
 14 15  2  0
 15 16  1  0
 16 17  2  0
 17 18  1  0
 18 19  2  0
  2 20  1  0
 20 21  1  0
 21 22  1  0
 22 23  1  0
 23 24  1  0
 24 25  1  0
 24 26  1  0
 26 27  1  0
 27 28  2  0
 27 29  1  0
 29 30  1  0
 30 31  1  0
 31 32  1  0
 32 33  2  0
 33 34  1  0
 34 35  2  0
 35 36  1  0
 36 37  2  0
 30 38  1  0
 38 39  2  0
 38 40  1  0
 40 41  1  0
 41 42  1  0
 42 43  1  0
 43 44  2  0
 44 45  1  0
 45 46  2  0
 46 47  1  0
 47 48  2  0
 41 49  1  0
 49 50  2  0
 49 51  1  0
 51 52  1  0
 52 53  1  0
 53 54  1  0
 54 55  2  0
 55 56  1  0
 56 57  2  0
 57 58  1  0
 58 59  2  0
 52 60  1  0
 60 61  2  0
 60 62  1  0
 62 63  1  0
 63 64  1  0
 64 65  1  0
 65 66  2  0
 66 67  1  0
 67 68  2  0
 68 69  1  0
 69 70  2  0
 63 71  1  0
 71 72  2  0
 71 73  1  0
 10  4  1  0
 19 14  1  0
 25 20  1  0
 37 32  1  0
 48 43  1  0
 59 54  1  0
 70 65  1  0
 11  6  1  0
 26 22  1  0
M  END
>  <Title>  (65) 
idAAJAgen6

$$$$

     RDKit          2D

 33 36  0  0  0  0  0  0  0  0999 V2000
   -7.8107   -3.8971    0.0000 N   0  0  0  0  0  0  0  0  0  0  0  0
   -7.0607   -2.5981    0.0000 C   0  0  0  0  0  0  0  0  0  0  0  0
   -5.5607   -2.5981    0.0000 O   0  0  0  0  0  0  0  0  0  0  0  0
   -7.8107   -1.2990    0.0000 C   0  0  0  0  0  0  0  0  0  0  0  0
   -9.3107   -1.2990    0.0000 C   0  0  0  0  0  0  0  0  0  0  0  0
  -10.0607   -2.5981    0.0000 C   0  0  0  0  0  0  0  0  0  0  0  0
  -11.5607   -2.5981    0.0000 C   0  0  0  0  0  0  0  0  0  0  0  0
  -12.3107   -3.8971    0.0000 C   0  0  0  0  0  0  0  0  0  0  0  0
  -11.5607   -5.1962    0.0000 C   0  0  0  0  0  0  0  0  0  0  0  0
  -10.0607   -5.1962    0.0000 C   0  0  0  0  0  0  0  0  0  0  0  0
   -9.3107   -3.8971    0.0000 C   0  0  0  0  0  0  0  0  0  0  0  0
   -7.0607   -0.0000    0.0000 N   0  0  0  0  0  0  0  0  0  0  0  0
   -5.5607    0.0000    0.0000 C   0  0  0  0  0  0  0  0  0  0  0  0
   -4.8107   -1.2990    0.0000 O   0  0  0  0  0  0  0  0  0  0  0  0
   -4.8107    1.2990    0.0000 C   0  0  0  0  0  0  0  0  0  0  0  0
   -5.5607    2.5981    0.0000 C   0  0  0  0  0  0  0  0  0  0  0  0
   -7.0607    2.5981    0.0000 C   0  0  0  0  0  0  0  0  0  0  0  0
   -7.8107    3.8971    0.0000 C   0  0  0  0  0  0  0  0  0  0  0  0
   -9.3107    3.8971    0.0000 C   0  0  0  0  0  0  0  0  0  0  0  0
  -10.0607    2.5981    0.0000 C   0  0  0  0  0  0  0  0  0  0  0  0
   -9.3107    1.2990    0.0000 C   0  0  0  0  0  0  0  0  0  0  0  0
   -7.8107    1.2990    0.0000 C   0  0  0  0  0  0  0  0  0  0  0  0
   -3.3107    1.2990    0.0000 N   0  0  0  0  0  0  0  0  0  0  0  0
   -2.5607    0.0000    0.0000 C   0  0  0  0  0  0  0  0  0  0  0  0
   -3.3107   -1.2990    0.0000 O   0  0  0  0  0  0  0  0  0  0  0  0
   -1.0607    0.0000    0.0000 C   0  0  0  0  0  0  0  0  0  0  0  0
    0.0000    1.0607    0.0000 C   0  0  0  0  0  0  0  0  0  0  0  0
   -1.5000    1.5374    0.0000 C   0  0  0  0  0  0  0  0  0  0  0  0
   -2.2500    0.2384    0.0000 C   0  0  0  0  0  0  0  0  0  0  0  0
   -3.7500    0.2384    0.0000 O   0  0  0  0  0  0  0  0  0  0  0  0
   -1.5000   -1.0607    0.0000 C   0  0  0  0  0  0  0  0  0  0  0  0
   -0.0000   -1.0607    0.0000 C   0  0  0  0  0  0  0  0  0  0  0  0
    1.0607    0.0000    0.0000 C   0  0  0  0  0  0  0  0  0  0  0  0
  1  2  1  0
  2  3  2  0
  2  4  1  0
  4  5  1  0
  5  6  1  0
  6  7  2  0
  7  8  1  0
  8  9  2  0
  9 10  1  0
 10 11  2  0
  4 12  1  0
 12 13  1  0
 13 14  2  0
 13 15  1  0
 15 16  1  0
 16 17  1  0
 17 18  2  0
 18 19  1  0
 19 20  2  0
 20 21  1  0
 21 22  2  0
 15 23  1  0
 23 24  1  0
 24 25  2  0
 24 26  1  0
 26 27  1  0
 27 28  1  0
 28 29  1  0
 29 30  1  0
 29 31  1  0
 31 32  1  0
 32 33  1  0
 11  6  1  0
 22 17  1  0
 32 26  1  0
 33 27  1  0
M  END
>  <Title>  (66) 
idAAJBgen6

$$$$

     RDKit          2D

 23 24  0  0  0  0  0  0  0  0999 V2000
    3.4598   -1.5000    0.0000 C   0  0  0  0  0  0  0  0  0  0  0  0
    3.4598    0.0000    0.0000 C   0  0  0  0  0  0  0  0  0  0  0  0
    3.6427    1.4888    0.0000 C   0  0  0  0  0  0  0  0  0  0  0  0
    4.9598    0.0000    0.0000 C   0  0  0  0  0  0  0  0  0  0  0  0
    1.9598    0.0000    0.0000 C   0  0  0  0  0  0  0  0  0  0  0  0
    1.3858   -1.3858    0.0000 C   0  0  0  0  0  0  0  0  0  0  0  0
   -0.0000   -1.9598    0.0000 C   0  0  0  0  0  0  0  0  0  0  0  0
   -1.3858   -1.3858    0.0000 C   0  0  0  0  0  0  0  0  0  0  0  0
   -2.4465   -2.4465    0.0000 C   0  0  0  0  0  0  0  0  0  0  0  0
   -1.9511   -3.8623    0.0000 C   0  0  0  0  0  0  0  0  0  0  0  0
   -2.7491   -5.1324    0.0000 C   0  0  0  0  0  0  0  0  0  0  0  0
   -4.2397   -5.3003    0.0000 C   0  0  0  0  0  0  0  0  0  0  0  0
   -5.3003   -4.2397    0.0000 C   0  0  0  0  0  0  0  0  0  0  0  0
   -5.1324   -2.7491    0.0000 C   0  0  0  0  0  0  0  0  0  0  0  0
   -3.8623   -1.9511    0.0000 C   0  0  0  0  0  0  0  0  0  0  0  0
   -4.9230   -0.8904    0.0000 C   0  0  0  0  0  0  0  0  0  0  0  0
   -3.0643   -0.6810    0.0000 C   0  0  0  0  0  0  0  0  0  0  0  0
   -1.9598    0.0000    0.0000 C   0  0  0  0  0  0  0  0  0  0  0  0
   -1.3858    1.3858    0.0000 C   0  0  0  0  0  0  0  0  0  0  0  0
    0.0000    1.9598    0.0000 C   0  0  0  0  0  0  0  0  0  0  0  0
    1.3858    1.3858    0.0000 C   0  0  0  0  0  0  0  0  0  0  0  0
    1.5816    2.8730    0.0000 C   0  0  0  0  0  0  0  0  0  0  0  0
    2.8380    1.7614    0.0000 C   0  0  0  0  0  0  0  0  0  0  0  0
  1  2  1  0
  2  3  1  0
  2  4  1  0
  2  5  1  0
  5  6  1  0
  6  7  1  0
  7  8  1  0
  8  9  1  0
  9 10  1  0
 10 11  1  0
 11 12  1  0
 12 13  1  0
 13 14  1  0
 14 15  1  0
 15 16  1  0
 15 17  1  0
  8 18  1  0
 18 19  1  0
 19 20  1  0
 20 21  1  0
 21 22  1  0
 21 23  1  0
 21  5  1  0
 15  9  1  0
M  END
>  <Title>  (67) 
idAAJCgen6

$$$$

     RDKit          2D

 42 46  0  0  0  0  0  0  0  0999 V2000
   -4.7734    1.7567    0.0000 O   0  0  0  0  0  0  0  0  0  0  0  0
   -3.4031    2.3668    0.0000 C   0  0  0  0  0  0  0  0  0  0  0  0
   -3.2463    3.8586    0.0000 N   0  0  0  0  0  0  0  0  0  0  0  0
   -4.4598    4.7402    0.0000 C   0  0  0  0  0  0  0  0  0  0  0  0
   -4.3030    6.2320    0.0000 C   0  0  0  0  0  0  0  0  0  0  0  0
   -5.5165    7.1137    0.0000 C   0  0  0  0  0  0  0  0  0  0  0  0
   -5.3597    8.6055    0.0000 C   0  0  0  0  0  0  0  0  0  0  0  0
   -6.5733    9.4872    0.0000 C   0  0  0  0  0  0  0  0  0  0  0  0
   -7.9436    8.8771    0.0000 C   0  0  0  0  0  0  0  0  0  0  0  0
   -8.1004    7.3853    0.0000 C   0  0  0  0  0  0  0  0  0  0  0  0
   -6.8869    6.5036    0.0000 C   0  0  0  0  0  0  0  0  0  0  0  0
   -5.8301    4.1301    0.0000 C   0  0  0  0  0  0  0  0  0  0  0  0
   -5.9869    2.6383    0.0000 O   0  0  0  0  0  0  0  0  0  0  0  0
   -7.0436    5.0118    0.0000 N   0  0  0  0  0  0  0  0  0  0  0  0
   -8.4140    4.4017    0.0000 C   0  0  0  0  0  0  0  0  0  0  0  0
   -9.6275    5.2834    0.0000 C   0  0  0  0  0  0  0  0  0  0  0  0
  -10.9978    4.6733    0.0000 C   0  0  0  0  0  0  0  0  0  0  0  0
  -12.2113    5.5550    0.0000 C   0  0  0  0  0  0  0  0  0  0  0  0
  -13.5817    4.9449    0.0000 C   0  0  0  0  0  0  0  0  0  0  0  0
  -13.7384    3.4531    0.0000 C   0  0  0  0  0  0  0  0  0  0  0  0
  -12.5249    2.5714    0.0000 C   0  0  0  0  0  0  0  0  0  0  0  0
  -11.1546    3.1815    0.0000 C   0  0  0  0  0  0  0  0  0  0  0  0
   -8.5708    2.9099    0.0000 C   0  0  0  0  0  0  0  0  0  0  0  0
   -7.3572    2.0282    0.0000 O   0  0  0  0  0  0  0  0  0  0  0  0
   -9.9411    2.2998    0.0000 O   0  0  0  0  0  0  0  0  0  0  0  0
   -2.1895    1.4851    0.0000 C   0  0  0  0  0  0  0  0  0  0  0  0
   -0.8192    2.0952    0.0000 C   0  0  0  0  0  0  0  0  0  0  0  0
    0.3943    1.2135    0.0000 C   0  0  0  0  0  0  0  0  0  0  0  0
    1.2760    0.0000    0.0000 C   0  0  0  0  0  0  0  0  0  0  0  0
    0.3943   -1.2135    0.0000 C   0  0  0  0  0  0  0  0  0  0  0  0
   -1.0323   -0.7500    0.0000 C   0  0  0  0  0  0  0  0  0  0  0  0
   -2.3463   -0.0067    0.0000 C   0  0  0  0  0  0  0  0  0  0  0  0
   -1.0323    0.7500    0.0000 C   0  0  0  0  0  0  0  0  0  0  0  0
   -2.2458    1.6317    0.0000 C   0  0  0  0  0  0  0  0  0  0  0  0
   -3.6161    1.0216    0.0000 O   0  0  0  0  0  0  0  0  0  0  0  0
   -2.0890    3.1235    0.0000 N   0  0  0  0  0  0  0  0  0  0  0  0
   -3.3025    4.0051    0.0000 C   0  0  0  0  0  0  0  0  0  0  0  0
   -3.1458    5.4969    0.0000 C   0  0  0  0  0  0  0  0  0  0  0  0
   -4.3593    6.3786    0.0000 C   0  0  0  0  0  0  0  0  0  0  0  0
   -5.7296    5.7685    0.0000 C   0  0  0  0  0  0  0  0  0  0  0  0
   -5.8864    4.2767    0.0000 C   0  0  0  0  0  0  0  0  0  0  0  0
   -4.6729    3.3950    0.0000 C   0  0  0  0  0  0  0  0  0  0  0  0
  1  2  2  0
  2  3  1  0
  3  4  1  0
  4  5  1  0
  5  6  1  0
  6  7  2  0
  7  8  1  0
  8  9  2  0
  9 10  1  0
 10 11  2  0
  4 12  1  0
 12 13  2  0
 12 14  1  0
 14 15  1  0
 15 16  1  0
 16 17  1  0
 17 18  2  0
 18 19  1  0
 19 20  2  0
 20 21  1  0
 21 22  2  0
 15 23  1  0
 23 24  2  0
 23 25  1  0
  2 26  1  0
 26 27  1  0
 27 28  1  0
 28 29  1  0
 29 30  1  0
 30 31  1  0
 31 32  1  0
 31 33  1  0
 33 34  1  0
 34 35  2  0
 34 36  1  0
 36 37  1  0
 37 38  2  0
 38 39  1  0
 39 40  2  0
 40 41  1  0
 41 42  2  0
 11  6  1  0
 22 17  1  0
 32 26  1  0
 42 37  1  0
 33 28  1  0
M  END
>  <Title>  (68) 
idAAJDgen6

$$$$

     RDKit          2D

 58 63  0  0  0  0  0  0  0  0999 V2000
   -4.6888    1.5942    0.0000 O   0  0  0  0  0  0  0  0  0  0  0  0
   -3.4031    2.3668    0.0000 C   0  0  0  0  0  0  0  0  0  0  0  0
   -3.2463    3.8586    0.0000 N   0  0  0  0  0  0  0  0  0  0  0  0
   -4.4598    4.7402    0.0000 C   0  0  0  0  0  0  0  0  0  0  0  0
   -4.3030    6.2320    0.0000 C   0  0  0  0  0  0  0  0  0  0  0  0
   -5.5165    7.1137    0.0000 C   0  0  0  0  0  0  0  0  0  0  0  0
   -5.3597    8.6055    0.0000 C   0  0  0  0  0  0  0  0  0  0  0  0
   -6.5733    9.4872    0.0000 C   0  0  0  0  0  0  0  0  0  0  0  0
   -7.9436    8.8771    0.0000 C   0  0  0  0  0  0  0  0  0  0  0  0
   -8.1004    7.3853    0.0000 C   0  0  0  0  0  0  0  0  0  0  0  0
   -6.8869    6.5036    0.0000 C   0  0  0  0  0  0  0  0  0  0  0  0
   -5.8301    4.1301    0.0000 C   0  0  0  0  0  0  0  0  0  0  0  0
   -5.9869    2.6383    0.0000 O   0  0  0  0  0  0  0  0  0  0  0  0
   -7.0436    5.0118    0.0000 N   0  0  0  0  0  0  0  0  0  0  0  0
   -8.4140    4.4017    0.0000 C   0  0  0  0  0  0  0  0  0  0  0  0
   -9.6275    5.2834    0.0000 C   0  0  0  0  0  0  0  0  0  0  0  0
  -10.9978    4.6733    0.0000 C   0  0  0  0  0  0  0  0  0  0  0  0
  -12.2113    5.5550    0.0000 C   0  0  0  0  0  0  0  0  0  0  0  0
  -13.5817    4.9449    0.0000 C   0  0  0  0  0  0  0  0  0  0  0  0
  -13.7384    3.4531    0.0000 C   0  0  0  0  0  0  0  0  0  0  0  0
  -12.5249    2.5714    0.0000 C   0  0  0  0  0  0  0  0  0  0  0  0
  -11.1546    3.1815    0.0000 C   0  0  0  0  0  0  0  0  0  0  0  0
   -8.5708    2.9099    0.0000 C   0  0  0  0  0  0  0  0  0  0  0  0
   -7.3572    2.0282    0.0000 O   0  0  0  0  0  0  0  0  0  0  0  0
   -9.9411    2.2998    0.0000 N   0  0  0  0  0  0  0  0  0  0  0  0
  -10.0979    0.8080    0.0000 C   0  0  0  0  0  0  0  0  0  0  0  0
  -11.4682    0.1979    0.0000 C   0  0  0  0  0  0  0  0  0  0  0  0
  -11.6250   -1.2939    0.0000 C   0  0  0  0  0  0  0  0  0  0  0  0
  -12.9953   -1.9040    0.0000 C   0  0  0  0  0  0  0  0  0  0  0  0
  -13.1521   -3.3957    0.0000 C   0  0  0  0  0  0  0  0  0  0  0  0
  -11.9386   -4.2774    0.0000 C   0  0  0  0  0  0  0  0  0  0  0  0
  -10.5682   -3.6673    0.0000 C   0  0  0  0  0  0  0  0  0  0  0  0
  -10.4115   -2.1755    0.0000 C   0  0  0  0  0  0  0  0  0  0  0  0
   -8.8843   -0.0736    0.0000 C   0  0  0  0  0  0  0  0  0  0  0  0
   -7.5140    0.5365    0.0000 O   0  0  0  0  0  0  0  0  0  0  0  0
   -9.0411   -1.5654    0.0000 O   0  0  0  0  0  0  0  0  0  0  0  0
   -2.1895    1.4851    0.0000 C   0  0  0  0  0  0  0  0  0  0  0  0
   -0.8192    2.0952    0.0000 C   0  0  0  0  0  0  0  0  0  0  0  0
    0.3943    1.2135    0.0000 C   0  0  0  0  0  0  0  0  0  0  0  0
    1.2760    0.0000    0.0000 C   0  0  0  0  0  0  0  0  0  0  0  0
    0.3943   -1.2135    0.0000 C   0  0  0  0  0  0  0  0  0  0  0  0
   -1.0323   -0.7500    0.0000 C   0  0  0  0  0  0  0  0  0  0  0  0
   -2.3463   -0.0067    0.0000 C   0  0  0  0  0  0  0  0  0  0  0  0
   -1.0323    0.7500    0.0000 C   0  0  0  0  0  0  0  0  0  0  0  0
   -2.2458    1.6317    0.0000 C   0  0  0  0  0  0  0  0  0  0  0  0
   -3.6161    1.0216    0.0000 O   0  0  0  0  0  0  0  0  0  0  0  0
   -2.0890    3.1235    0.0000 N   0  0  0  0  0  0  0  0  0  0  0  0
   -3.3025    4.0051    0.0000 C   0  0  0  0  0  0  0  0  0  0  0  0
   -3.1458    5.4969    0.0000 C   0  0  0  0  0  0  0  0  0  0  0  0
   -4.3593    6.3786    0.0000 C   0  0  0  0  0  0  0  0  0  0  0  0
   -4.2025    7.8704    0.0000 C   0  0  0  0  0  0  0  0  0  0  0  0
   -5.4160    8.7521    0.0000 C   0  0  0  0  0  0  0  0  0  0  0  0
   -6.7863    8.1420    0.0000 C   0  0  0  0  0  0  0  0  0  0  0  0
   -6.9431    6.6502    0.0000 C   0  0  0  0  0  0  0  0  0  0  0  0
   -5.7296    5.7685    0.0000 C   0  0  0  0  0  0  0  0  0  0  0  0
   -4.6729    3.3950    0.0000 C   0  0  0  0  0  0  0  0  0  0  0  0
   -5.0103    1.9335    0.0000 O   0  0  0  0  0  0  0  0  0  0  0  0
   -6.0637    3.9569    0.0000 O   0  0  0  0  0  0  0  0  0  0  0  0
  1  2  2  0
  2  3  1  0
  3  4  1  0
  4  5  1  0
  5  6  1  0
  6  7  2  0
  7  8  1  0
  8  9  2  0
  9 10  1  0
 10 11  2  0
  4 12  1  0
 12 13  2  0
 12 14  1  0
 14 15  1  0
 15 16  1  0
 16 17  1  0
 17 18  2  0
 18 19  1  0
 19 20  2  0
 20 21  1  0
 21 22  2  0
 15 23  1  0
 23 24  2  0
 23 25  1  0
 25 26  1  0
 26 27  1  0
 27 28  1  0
 28 29  2  0
 29 30  1  0
 30 31  2  0
 31 32  1  0
 32 33  2  0
 26 34  1  0
 34 35  2  0
 34 36  1  0
  2 37  1  0
 37 38  1  0
 38 39  1  0
 39 40  1  0
 40 41  1  0
 41 42  1  0
 42 43  1  0
 42 44  1  0
 44 45  1  0
 45 46  2  0
 45 47  1  0
 47 48  1  0
 48 49  1  0
 49 50  1  0
 50 51  2  0
 51 52  1  0
 52 53  2  0
 53 54  1  0
 54 55  2  0
 48 56  1  0
 56 57  2  0
 56 58  1  0
 11  6  1  0
 22 17  1  0
 33 28  1  0
 43 37  1  0
 55 50  1  0
 44 39  1  0
M  END
>  <Title>  (69) 
idAAJEgen6

$$$$

     RDKit          2D

 19 21  0  0  0  0  0  0  0  0999 V2000
    2.6491    0.9642    0.0000 C   0  0  0  0  0  0  0  0  0  0  0  0
    1.5000    0.0000    0.0000 C   0  0  0  0  0  0  0  0  0  0  0  0
    2.6491   -0.9642    0.0000 C   0  0  0  0  0  0  0  0  0  0  0  0
    0.7500   -1.2990    0.0000 C   0  0  0  0  0  0  0  0  0  0  0  0
   -0.7500   -1.2990    0.0000 C   0  0  0  0  0  0  0  0  0  0  0  0
   -1.5000    0.0000    0.0000 C   0  0  0  0  0  0  0  0  0  0  0  0
   -0.7500    1.2990    0.0000 C   0  0  0  0  0  0  0  0  0  0  0  0
   -2.2500    1.2990    0.0000 C   0  0  0  0  0  0  0  0  0  0  0  0
   -1.5000    2.5981    0.0000 C   0  0  0  0  0  0  0  0  0  0  0  0
   -3.0000    2.5981    0.0000 C   0  0  0  0  0  0  0  0  0  0  0  0
   -3.7500    3.8971    0.0000 C   0  0  0  0  0  0  0  0  0  0  0  0
   -5.2418    4.0539    0.0000 C   0  0  0  0  0  0  0  0  0  0  0  0
   -5.5537    5.5211    0.0000 C   0  0  0  0  0  0  0  0  0  0  0  0
   -4.2546    6.2711    0.0000 C   0  0  0  0  0  0  0  0  0  0  0  0
   -3.1399    5.2674    0.0000 C   0  0  0  0  0  0  0  0  0  0  0  0
   -0.7500    3.8971    0.0000 C   0  0  0  0  0  0  0  0  0  0  0  0
    0.7500    3.8971    0.0000 C   0  0  0  0  0  0  0  0  0  0  0  0
    1.5000    2.5981    0.0000 C   0  0  0  0  0  0  0  0  0  0  0  0
    0.7500    1.2990    0.0000 C   0  0  0  0  0  0  0  0  0  0  0  0
  1  2  1  0
  2  3  1  0
  2  4  1  0
  4  5  1  0
  5  6  1  0
  6  7  1  0
  7  8  1  0
  7  9  1  0
  9 10  1  0
 10 11  1  0
 11 12  1  0
 12 13  1  0
 13 14  1  0
 14 15  1  0
  9 16  1  0
 16 17  1  0
 17 18  1  0
 18 19  1  0
 19  2  1  0
 19  7  1  0
 15 11  1  0
M  END
>  <Title>  (70) 
idAAJFgen6

$$$$

     RDKit          2D

 64 71  0  0  0  0  0  0  0  0999 V2000
   -4.6343   -1.2985    0.0000 O   0  0  0  0  0  0  0  0  0  0  0  0
   -4.8875   -2.7770    0.0000 C   0  0  0  0  0  0  0  0  0  0  0  0
   -3.5361   -3.4278    0.0000 N   0  0  0  0  0  0  0  0  0  0  0  0
   -2.2967   -2.5828    0.0000 C   0  0  0  0  0  0  0  0  0  0  0  0
   -0.9977   -3.3328    0.0000 C   0  0  0  0  0  0  0  0  0  0  0  0
    0.3987   -2.7848    0.0000 C   0  0  0  0  0  0  0  0  0  0  0  0
    0.7500   -1.2990    0.0000 C   0  0  0  0  0  0  0  0  0  0  0  0
    1.5000    0.0000    0.0000 C   0  0  0  0  0  0  0  0  0  0  0  0
    0.7500    1.2990    0.0000 C   0  0  0  0  0  0  0  0  0  0  0  0
   -0.7500    1.2990    0.0000 C   0  0  0  0  0  0  0  0  0  0  0  0
   -1.5000    0.0000    0.0000 C   0  0  0  0  0  0  0  0  0  0  0  0
   -2.5203   -1.0996    0.0000 C   0  0  0  0  0  0  0  0  0  0  0  0
   -0.7500   -1.2990    0.0000 N   0  0  0  0  0  0  0  0  0  0  0  0
   -1.5000   -2.5981    0.0000 C   0  0  0  0  0  0  0  0  0  0  0  0
   -3.0000   -2.5981    0.0000 C   0  0  0  0  0  0  0  0  0  0  0  0
   -3.7500   -3.8971    0.0000 C   0  0  0  0  0  0  0  0  0  0  0  0
   -3.0000   -5.1962    0.0000 C   0  0  0  0  0  0  0  0  0  0  0  0
   -3.7500   -6.4952    0.0000 C   0  0  0  0  0  0  0  0  0  0  0  0
   -5.2500   -6.4952    0.0000 C   0  0  0  0  0  0  0  0  0  0  0  0
   -6.0000   -5.1962    0.0000 C   0  0  0  0  0  0  0  0  0  0  0  0
   -5.2500   -3.8971    0.0000 C   0  0  0  0  0  0  0  0  0  0  0  0
   -6.1269   -3.6220    0.0000 C   0  0  0  0  0  0  0  0  0  0  0  0
   -7.4783   -2.9711    0.0000 C   0  0  0  0  0  0  0  0  0  0  0  0
   -8.7177   -3.8161    0.0000 C   0  0  0  0  0  0  0  0  0  0  0  0
   -8.6056   -5.3119    0.0000 C   0  0  0  0  0  0  0  0  0  0  0  0
   -7.2541   -5.9627    0.0000 C   0  0  0  0  0  0  0  0  0  0  0  0
   -6.0148   -5.1178    0.0000 C   0  0  0  0  0  0  0  0  0  0  0  0
   -7.3662   -4.4669    0.0000 C   0  0  0  0  0  0  0  0  0  0  0  0
   -6.1269   -3.6220    0.0000 C   0  0  0  0  0  0  0  0  0  0  0  0
   -4.9731   -4.5805    0.0000 O   0  0  0  0  0  0  0  0  0  0  0  0
   -6.2390   -2.1262    0.0000 N   0  0  0  0  0  0  0  0  0  0  0  0
   -4.9996   -1.2812    0.0000 C   0  0  0  0  0  0  0  0  0  0  0  0
   -5.1117    0.2146    0.0000 C   0  0  0  0  0  0  0  0  0  0  0  0
   -3.8723    1.0596    0.0000 C   0  0  0  0  0  0  0  0  0  0  0  0
   -2.5209    0.4088    0.0000 C   0  0  0  0  0  0  0  0  0  0  0  0
   -1.2815    1.2538    0.0000 C   0  0  0  0  0  0  0  0  0  0  0  0
   -1.3936    2.7496    0.0000 C   0  0  0  0  0  0  0  0  0  0  0  0
   -2.7451    3.4004    0.0000 C   0  0  0  0  0  0  0  0  0  0  0  0
   -3.9844    2.5554    0.0000 C   0  0  0  0  0  0  0  0  0  0  0  0
   -3.6481   -1.9320    0.0000 C   0  0  0  0  0  0  0  0  0  0  0  0
   -3.5361   -3.4278    0.0000 O   0  0  0  0  0  0  0  0  0  0  0  0
   -2.4088   -1.0870    0.0000 N   0  0  0  0  0  0  0  0  0  0  0  0
   -1.0573   -1.7378    0.0000 C   0  0  0  0  0  0  0  0  0  0  0  0
    0.1820   -0.8929    0.0000 C   0  0  0  0  0  0  0  0  0  0  0  0
    1.5335   -1.5437    0.0000 C   0  0  0  0  0  0  0  0  0  0  0  0
    1.6456   -3.0395    0.0000 C   0  0  0  0  0  0  0  0  0  0  0  0
    2.9970   -3.6903    0.0000 C   0  0  0  0  0  0  0  0  0  0  0  0
    4.2364   -2.8453    0.0000 C   0  0  0  0  0  0  0  0  0  0  0  0
    4.1243   -1.3495    0.0000 C   0  0  0  0  0  0  0  0  0  0  0  0
    2.7728   -0.6987    0.0000 C   0  0  0  0  0  0  0  0  0  0  0  0
   -0.9452   -3.2336    0.0000 C   0  0  0  0  0  0  0  0  0  0  0  0
   -2.1846   -4.0786    0.0000 O   0  0  0  0  0  0  0  0  0  0  0  0
    0.4062   -3.8845    0.0000 N   0  0  0  0  0  0  0  0  0  0  0  0
    0.5183   -5.3803    0.0000 C   0  0  0  0  0  0  0  0  0  0  0  0
    1.8698   -6.0311    0.0000 C   0  0  0  0  0  0  0  0  0  0  0  0
    1.9819   -7.5269    0.0000 C   0  0  0  0  0  0  0  0  0  0  0  0
    0.7425   -8.3719    0.0000 C   0  0  0  0  0  0  0  0  0  0  0  0
    0.8546   -9.8677    0.0000 C   0  0  0  0  0  0  0  0  0  0  0  0
    2.2060  -10.5185    0.0000 C   0  0  0  0  0  0  0  0  0  0  0  0
    3.4454   -9.6735    0.0000 C   0  0  0  0  0  0  0  0  0  0  0  0
    3.3333   -8.1777    0.0000 C   0  0  0  0  0  0  0  0  0  0  0  0
   -0.7211   -6.2253    0.0000 C   0  0  0  0  0  0  0  0  0  0  0  0
   -2.0725   -5.5744    0.0000 O   0  0  0  0  0  0  0  0  0  0  0  0
   -0.6090   -7.7211    0.0000 O   0  0  0  0  0  0  0  0  0  0  0  0
  1  2  2  0
  2  3  1  0
  3  4  1  0
  4  5  1  0
  5  6  1  0
  6  7  1  0
  7  8  1  0
  8  9  1  0
  9 10  1  0
 10 11  1  0
 11 12  1  0
 11 13  1  0
 13 14  1  0
 14 15  1  0
 15 16  1  0
 16 17  2  0
 17 18  1  0
 18 19  2  0
 19 20  1  0
 20 21  2  0
  2 22  1  0
 22 23  1  0
 23 24  1  0
 24 25  1  0
 25 26  1  0
 26 27  1  0
 26 28  1  0
 28 29  1  0
 29 30  2  0
 29 31  1  0
 31 32  1  0
 32 33  1  0
 33 34  1  0
 34 35  2  0
 35 36  1  0
 36 37  2  0
 37 38  1  0
 38 39  2  0
 32 40  1  0
 40 41  2  0
 40 42  1  0
 42 43  1  0
 43 44  1  0
 44 45  1  0
 45 46  2  0
 46 47  1  0
 47 48  2  0
 48 49  1  0
 49 50  2  0
 43 51  1  0
 51 52  2  0
 51 53  1  0
 53 54  1  0
 54 55  1  0
 55 56  1  0
 56 57  2  0
 57 58  1  0
 58 59  2  0
 59 60  1  0
 60 61  2  0
 54 62  1  0
 62 63  2  0
 62 64  1  0
 12  4  1  0
 21 16  1  0
 27 22  1  0
 39 34  1  0
 50 45  1  0
 61 56  1  0
 13  7  1  0
 28 24  1  0
M  END
>  <Title>  (71) 
idAAJGgen6

$$$$

     RDKit          2D

 54 59  0  0  0  0  0  0  0  0999 V2000
   -4.6888    1.5942    0.0000 O   0  0  0  0  0  0  0  0  0  0  0  0
   -3.4031    2.3668    0.0000 C   0  0  0  0  0  0  0  0  0  0  0  0
   -3.2463    3.8586    0.0000 N   0  0  0  0  0  0  0  0  0  0  0  0
   -4.4598    4.7402    0.0000 C   0  0  0  0  0  0  0  0  0  0  0  0
   -4.3030    6.2320    0.0000 C   0  0  0  0  0  0  0  0  0  0  0  0
   -2.9327    6.8421    0.0000 C   0  0  0  0  0  0  0  0  0  0  0  0
   -2.7759    8.3339    0.0000 C   0  0  0  0  0  0  0  0  0  0  0  0
   -3.9894    9.2156    0.0000 C   0  0  0  0  0  0  0  0  0  0  0  0
   -5.3597    8.6055    0.0000 C   0  0  0  0  0  0  0  0  0  0  0  0
   -5.5165    7.1137    0.0000 C   0  0  0  0  0  0  0  0  0  0  0  0
   -2.1895    1.4851    0.0000 C   0  0  0  0  0  0  0  0  0  0  0  0
   -0.8192    2.0952    0.0000 C   0  0  0  0  0  0  0  0  0  0  0  0
    0.3943    1.2135    0.0000 C   0  0  0  0  0  0  0  0  0  0  0  0
    1.2760    0.0000    0.0000 C   0  0  0  0  0  0  0  0  0  0  0  0
    0.3943   -1.2135    0.0000 C   0  0  0  0  0  0  0  0  0  0  0  0
   -1.0323   -0.7500    0.0000 C   0  0  0  0  0  0  0  0  0  0  0  0
   -2.3463   -0.0067    0.0000 C   0  0  0  0  0  0  0  0  0  0  0  0
   -1.0323    0.7500    0.0000 C   0  0  0  0  0  0  0  0  0  0  0  0
   -2.2458    1.6317    0.0000 C   0  0  0  0  0  0  0  0  0  0  0  0
   -3.6161    1.0216    0.0000 O   0  0  0  0  0  0  0  0  0  0  0  0
   -2.0890    3.1235    0.0000 N   0  0  0  0  0  0  0  0  0  0  0  0
   -3.3025    4.0051    0.0000 C   0  0  0  0  0  0  0  0  0  0  0  0
   -3.1458    5.4969    0.0000 C   0  0  0  0  0  0  0  0  0  0  0  0
   -4.3593    6.3786    0.0000 C   0  0  0  0  0  0  0  0  0  0  0  0
   -4.2025    7.8704    0.0000 C   0  0  0  0  0  0  0  0  0  0  0  0
   -5.4160    8.7521    0.0000 C   0  0  0  0  0  0  0  0  0  0  0  0
   -6.7863    8.1420    0.0000 C   0  0  0  0  0  0  0  0  0  0  0  0
   -6.9431    6.6502    0.0000 C   0  0  0  0  0  0  0  0  0  0  0  0
   -5.7296    5.7685    0.0000 C   0  0  0  0  0  0  0  0  0  0  0  0
   -4.6729    3.3950    0.0000 C   0  0  0  0  0  0  0  0  0  0  0  0
   -5.0103    1.9335    0.0000 O   0  0  0  0  0  0  0  0  0  0  0  0
   -5.8864    4.2767    0.0000 N   0  0  0  0  0  0  0  0  0  0  0  0
   -7.2567    3.6666    0.0000 C   0  0  0  0  0  0  0  0  0  0  0  0
   -8.4702    4.5483    0.0000 C   0  0  0  0  0  0  0  0  0  0  0  0
   -9.8406    3.9382    0.0000 C   0  0  0  0  0  0  0  0  0  0  0  0
  -11.0541    4.8199    0.0000 C   0  0  0  0  0  0  0  0  0  0  0  0
  -12.4244    4.2098    0.0000 C   0  0  0  0  0  0  0  0  0  0  0  0
  -12.5812    2.7180    0.0000 C   0  0  0  0  0  0  0  0  0  0  0  0
  -11.3677    1.8363    0.0000 C   0  0  0  0  0  0  0  0  0  0  0  0
   -9.9973    2.4464    0.0000 C   0  0  0  0  0  0  0  0  0  0  0  0
   -7.4135    2.1748    0.0000 C   0  0  0  0  0  0  0  0  0  0  0  0
   -6.2000    1.2931    0.0000 O   0  0  0  0  0  0  0  0  0  0  0  0
   -8.7838    1.5647    0.0000 N   0  0  0  0  0  0  0  0  0  0  0  0
   -8.9406    0.0729    0.0000 C   0  0  0  0  0  0  0  0  0  0  0  0
  -10.3109   -0.5372    0.0000 C   0  0  0  0  0  0  0  0  0  0  0  0
  -10.4677   -2.0290    0.0000 C   0  0  0  0  0  0  0  0  0  0  0  0
  -11.8380   -2.6391    0.0000 C   0  0  0  0  0  0  0  0  0  0  0  0
  -11.9948   -4.1308    0.0000 C   0  0  0  0  0  0  0  0  0  0  0  0
  -10.7813   -5.0125    0.0000 C   0  0  0  0  0  0  0  0  0  0  0  0
   -9.4110   -4.4024    0.0000 C   0  0  0  0  0  0  0  0  0  0  0  0
   -9.2542   -2.9106    0.0000 C   0  0  0  0  0  0  0  0  0  0  0  0
   -7.7271   -0.8087    0.0000 C   0  0  0  0  0  0  0  0  0  0  0  0
   -6.3568   -0.1986    0.0000 O   0  0  0  0  0  0  0  0  0  0  0  0
   -7.8839   -2.3005    0.0000 O   0  0  0  0  0  0  0  0  0  0  0  0
  1  2  2  0
  2  3  1  0
  3  4  1  0
  4  5  1  0
  5  6  2  0
  6  7  1  0
  7  8  2  0
  8  9  1  0
  9 10  2  0
  2 11  1  0
 11 12  1  0
 12 13  1  0
 13 14  1  0
 14 15  1  0
 15 16  1  0
 16 17  1  0
 16 18  1  0
 18 19  1  0
 19 20  2  0
 19 21  1  0
 21 22  1  0
 22 23  1  0
 23 24  1  0
 24 25  2  0
 25 26  1  0
 26 27  2  0
 27 28  1  0
 28 29  2  0
 22 30  1  0
 30 31  2  0
 30 32  1  0
 32 33  1  0
 33 34  1  0
 34 35  1  0
 35 36  2  0
 36 37  1  0
 37 38  2  0
 38 39  1  0
 39 40  2  0
 33 41  1  0
 41 42  2  0
 41 43  1  0
 43 44  1  0
 44 45  1  0
 45 46  1  0
 46 47  2  0
 47 48  1  0
 48 49  2  0
 49 50  1  0
 50 51  2  0
 44 52  1  0
 52 53  2  0
 52 54  1  0
 10  5  1  0
 17 11  1  0
 29 24  1  0
 40 35  1  0
 51 46  1  0
 18 13  1  0
M  END
>  <Title>  (72) 
idAAJHgen6

$$$$

     RDKit          2D

 29 33  0  0  0  0  0  0  0  0999 V2000
   -1.7691    4.1190    0.0000 O   0  0  0  0  0  0  0  0  0  0  0  0
   -3.2463    3.8586    0.0000 C   0  0  0  0  0  0  0  0  0  0  0  0
   -3.4031    2.3668    0.0000 N   0  0  0  0  0  0  0  0  0  0  0  0
   -2.1895    1.4851    0.0000 C   0  0  0  0  0  0  0  0  0  0  0  0
   -0.8192    2.0952    0.0000 C   0  0  0  0  0  0  0  0  0  0  0  0
    0.3943    1.2135    0.0000 C   0  0  0  0  0  0  0  0  0  0  0  0
    1.2760    0.0000    0.0000 C   0  0  0  0  0  0  0  0  0  0  0  0
    0.3943   -1.2135    0.0000 C   0  0  0  0  0  0  0  0  0  0  0  0
   -1.0323   -0.7500    0.0000 C   0  0  0  0  0  0  0  0  0  0  0  0
   -2.3463   -0.0067    0.0000 C   0  0  0  0  0  0  0  0  0  0  0  0
   -1.0323    0.7500    0.0000 N   0  0  0  0  0  0  0  0  0  0  0  0
   -2.2458    1.6317    0.0000 C   0  0  0  0  0  0  0  0  0  0  0  0
   -2.0890    3.1235    0.0000 C   0  0  0  0  0  0  0  0  0  0  0  0
   -3.3025    4.0051    0.0000 C   0  0  0  0  0  0  0  0  0  0  0  0
   -3.1458    5.4969    0.0000 C   0  0  0  0  0  0  0  0  0  0  0  0
   -4.3593    6.3786    0.0000 C   0  0  0  0  0  0  0  0  0  0  0  0
   -5.7296    5.7685    0.0000 C   0  0  0  0  0  0  0  0  0  0  0  0
   -5.8864    4.2767    0.0000 C   0  0  0  0  0  0  0  0  0  0  0  0
   -4.6729    3.3950    0.0000 C   0  0  0  0  0  0  0  0  0  0  0  0
   -4.4598    4.7402    0.0000 N   0  0  0  0  0  0  0  0  0  0  0  0
   -4.3030    6.2320    0.0000 C   0  0  0  0  0  0  0  0  0  0  0  0
   -2.8067    6.3367    0.0000 C   0  0  0  0  0  0  0  0  0  0  0  0
   -1.9679    5.0931    0.0000 C   0  0  0  0  0  0  0  0  0  0  0  0
   -0.4715    5.1977    0.0000 C   0  0  0  0  0  0  0  0  0  0  0  0
    0.1860    6.5459    0.0000 C   0  0  0  0  0  0  0  0  0  0  0  0
   -0.6528    7.7895    0.0000 C   0  0  0  0  0  0  0  0  0  0  0  0
   -2.1491    7.6848    0.0000 N   0  0  0  0  0  0  0  0  0  0  0  0
   -4.6659    7.6875    0.0000 C   0  0  0  0  0  0  0  0  0  0  0  0
   -5.7449    6.6455    0.0000 C   0  0  0  0  0  0  0  0  0  0  0  0
  1  2  2  0
  2  3  1  0
  3  4  1  0
  4  5  1  0
  5  6  1  0
  6  7  1  0
  7  8  1  0
  8  9  1  0
  9 10  1  0
  9 11  1  0
 11 12  1  0
 12 13  1  0
 13 14  1  0
 14 15  2  0
 15 16  1  0
 16 17  2  0
 17 18  1  0
 18 19  2  0
  2 20  1  0
 20 21  1  0
 21 22  1  0
 22 23  2  0
 23 24  1  0
 24 25  2  0
 25 26  1  0
 26 27  2  0
 21 28  1  0
 28 29  1  0
 10  4  1  0
 19 14  1  0
 29 21  1  0
 11  6  1  0
 27 22  1  0
M  END
>  <Title>  (73) 
idAAJIgen6

$$$$

     RDKit          2D

 47 51  0  0  0  0  0  0  0  0999 V2000
   -2.9327    6.8421    0.0000 O   0  0  0  0  0  0  0  0  0  0  0  0
   -2.7759    8.3339    0.0000 C   0  0  0  0  0  0  0  0  0  0  0  0
   -3.9894    9.2156    0.0000 O   0  0  0  0  0  0  0  0  0  0  0  0
   -1.4056    8.9440    0.0000 C   0  0  0  0  0  0  0  0  0  0  0  0
   -1.2488   10.4358    0.0000 C   0  0  0  0  0  0  0  0  0  0  0  0
   -2.4623   11.3175    0.0000 C   0  0  0  0  0  0  0  0  0  0  0  0
   -2.3055   12.8093    0.0000 C   0  0  0  0  0  0  0  0  0  0  0  0
   -3.5190   13.6909    0.0000 C   0  0  0  0  0  0  0  0  0  0  0  0
   -4.8894   13.0808    0.0000 C   0  0  0  0  0  0  0  0  0  0  0  0
   -5.0462   11.5890    0.0000 C   0  0  0  0  0  0  0  0  0  0  0  0
   -3.8326   10.7074    0.0000 C   0  0  0  0  0  0  0  0  0  0  0  0
   -0.1921    8.0623    0.0000 N   0  0  0  0  0  0  0  0  0  0  0  0
   -0.3488    6.5706    0.0000 C   0  0  0  0  0  0  0  0  0  0  0  0
   -1.7192    5.9604    0.0000 O   0  0  0  0  0  0  0  0  0  0  0  0
    0.8647    5.6889    0.0000 C   0  0  0  0  0  0  0  0  0  0  0  0
    2.2350    6.2990    0.0000 C   0  0  0  0  0  0  0  0  0  0  0  0
    2.3918    7.7908    0.0000 C   0  0  0  0  0  0  0  0  0  0  0  0
    3.7621    8.4009    0.0000 C   0  0  0  0  0  0  0  0  0  0  0  0
    3.9189    9.8926    0.0000 C   0  0  0  0  0  0  0  0  0  0  0  0
    2.7054   10.7743    0.0000 C   0  0  0  0  0  0  0  0  0  0  0  0
    1.3351   10.1642    0.0000 C   0  0  0  0  0  0  0  0  0  0  0  0
    1.1783    8.6724    0.0000 C   0  0  0  0  0  0  0  0  0  0  0  0
    0.7079    4.1971    0.0000 N   0  0  0  0  0  0  0  0  0  0  0  0
   -0.6624    3.5870    0.0000 C   0  0  0  0  0  0  0  0  0  0  0  0
   -1.8760    4.4687    0.0000 O   0  0  0  0  0  0  0  0  0  0  0  0
   -0.8192    2.0952    0.0000 C   0  0  0  0  0  0  0  0  0  0  0  0
    0.3943    1.2135    0.0000 C   0  0  0  0  0  0  0  0  0  0  0  0
    1.2760    0.0000    0.0000 C   0  0  0  0  0  0  0  0  0  0  0  0
    0.3943   -1.2135    0.0000 C   0  0  0  0  0  0  0  0  0  0  0  0
   -1.0323   -0.7500    0.0000 C   0  0  0  0  0  0  0  0  0  0  0  0
   -1.0323    0.7500    0.0000 C   0  0  0  0  0  0  0  0  0  0  0  0
   -2.3463   -0.0067    0.0000 C   0  0  0  0  0  0  0  0  0  0  0  0
   -2.1895    1.4851    0.0000 C   0  0  0  0  0  0  0  0  0  0  0  0
   -3.4031    2.3668    0.0000 C   0  0  0  0  0  0  0  0  0  0  0  0
   -4.7734    1.7567    0.0000 O   0  0  0  0  0  0  0  0  0  0  0  0
   -3.2463    3.8586    0.0000 N   0  0  0  0  0  0  0  0  0  0  0  0
   -4.4598    4.7402    0.0000 C   0  0  0  0  0  0  0  0  0  0  0  0
   -4.3030    6.2320    0.0000 C   0  0  0  0  0  0  0  0  0  0  0  0
   -5.5165    7.1137    0.0000 C   0  0  0  0  0  0  0  0  0  0  0  0
   -5.3597    8.6055    0.0000 C   0  0  0  0  0  0  0  0  0  0  0  0
   -6.5733    9.4872    0.0000 C   0  0  0  0  0  0  0  0  0  0  0  0
   -7.9436    8.8771    0.0000 C   0  0  0  0  0  0  0  0  0  0  0  0
   -8.1004    7.3853    0.0000 C   0  0  0  0  0  0  0  0  0  0  0  0
   -6.8869    6.5036    0.0000 C   0  0  0  0  0  0  0  0  0  0  0  0
   -5.8301    4.1301    0.0000 C   0  0  0  0  0  0  0  0  0  0  0  0
   -5.9869    2.6383    0.0000 O   0  0  0  0  0  0  0  0  0  0  0  0
   -7.0436    5.0118    0.0000 O   0  0  0  0  0  0  0  0  0  0  0  0
  1  2  2  0
  2  3  1  0
  2  4  1  0
  4  5  1  0
  5  6  1  0
  6  7  2  0
  7  8  1  0
  8  9  2  0
  9 10  1  0
 10 11  2  0
  4 12  1  0
 12 13  1  0
 13 14  2  0
 13 15  1  0
 15 16  1  0
 16 17  1  0
 17 18  2  0
 18 19  1  0
 19 20  2  0
 20 21  1  0
 21 22  2  0
 15 23  1  0
 23 24  1  0
 24 25  2  0
 24 26  1  0
 26 27  1  0
 27 28  1  0
 28 29  1  0
 29 30  1  0
 30 31  1  0
 30 32  1  0
 32 33  1  0
 33 34  1  0
 34 35  2  0
 34 36  1  0
 36 37  1  0
 37 38  1  0
 38 39  1  0
 39 40  2  0
 40 41  1  0
 41 42  2  0
 42 43  1  0
 43 44  2  0
 37 45  1  0
 45 46  2  0
 45 47  1  0
 11  6  1  0
 22 17  1  0
 33 26  1  0
 44 39  1  0
 31 27  1  0
M  END
>  <Title>  (74) 
idAAJJgen6

$$$$

     RDKit          2D

 30 34  0  0  0  0  0  0  0  0999 V2000
    5.1102   -5.2419    0.0000 C   0  0  0  0  0  0  0  0  0  0  0  0
    3.9955   -4.2382    0.0000 C   0  0  0  0  0  0  0  0  0  0  0  0
    2.8808   -3.2345    0.0000 C   0  0  0  0  0  0  0  0  0  0  0  0
    4.9992   -3.1235    0.0000 C   0  0  0  0  0  0  0  0  0  0  0  0
    2.9918   -5.3529    0.0000 C   0  0  0  0  0  0  0  0  0  0  0  0
    3.3037   -6.8202    0.0000 C   0  0  0  0  0  0  0  0  0  0  0  0
    2.0046   -7.5702    0.0000 C   0  0  0  0  0  0  0  0  0  0  0  0
    3.2181   -8.4518    0.0000 C   0  0  0  0  0  0  0  0  0  0  0  0
    4.0998   -7.2383    0.0000 C   0  0  0  0  0  0  0  0  0  0  0  0
    2.3365   -9.6654    0.0000 C   0  0  0  0  0  0  0  0  0  0  0  0
    4.4317   -9.3335    0.0000 N   0  0  0  0  0  0  0  0  0  0  0  0
    1.6927   -9.0374    0.0000 C   0  0  0  0  0  0  0  0  0  0  0  0
    0.2662   -9.5009    0.0000 C   0  0  0  0  0  0  0  0  0  0  0  0
   -0.8486   -8.4972    0.0000 C   0  0  0  0  0  0  0  0  0  0  0  0
   -0.5367   -7.0300    0.0000 C   0  0  0  0  0  0  0  0  0  0  0  0
    0.8899   -6.5665    0.0000 C   0  0  0  0  0  0  0  0  0  0  0  0
   -0.1138   -5.4518    0.0000 C   0  0  0  0  0  0  0  0  0  0  0  0
    1.5000   -5.1962    0.0000 C   0  0  0  0  0  0  0  0  0  0  0  0
    0.7500   -3.8971    0.0000 C   0  0  0  0  0  0  0  0  0  0  0  0
    1.5000   -2.5981    0.0000 C   0  0  0  0  0  0  0  0  0  0  0  0
    0.7500   -1.2990    0.0000 C   0  0  0  0  0  0  0  0  0  0  0  0
    1.5000    0.0000    0.0000 C   0  0  0  0  0  0  0  0  0  0  0  0
    0.7500    1.2990    0.0000 C   0  0  0  0  0  0  0  0  0  0  0  0
   -0.7500    1.2990    0.0000 C   0  0  0  0  0  0  0  0  0  0  0  0
   -1.5000    0.0000    0.0000 C   0  0  0  0  0  0  0  0  0  0  0  0
    1.7010   -0.7500    0.0000 C   0  0  0  0  0  0  0  0  0  0  0  0
    3.0000   -0.0000    0.0000 C   0  0  0  0  0  0  0  0  0  0  0  0
    2.2500    1.2990    0.0000 C   0  0  0  0  0  0  0  0  0  0  0  0
    2.2500   -1.2990    0.0000 C   0  0  0  0  0  0  0  0  0  0  0  0
   -0.7500   -1.2990    0.0000 C   0  0  0  0  0  0  0  0  0  0  0  0
  1  2  1  0
  2  3  1  0
  2  4  1  0
  2  5  1  0
  5  6  1  0
  6  7  1  0
  7  8  1  0
  8  9  1  0
  8 10  1  0
  8 11  1  0
  7 12  1  0
 12 13  1  0
 13 14  1  0
 14 15  1  0
 15 16  1  0
 16 17  1  0
 16 18  1  0
 18 19  1  0
 19 20  1  0
 20 21  1  0
 21 22  1  0
 22 23  1  0
 23 24  1  0
 24 25  1  0
 25 26  1  0
 26 27  1  0
 27 28  1  0
 27 29  1  0
 25 30  1  0
 18  5  1  0
 29 21  1  0
 16  7  1  0
 30 21  1  0
 28 23  1  0
M  END
>  <Title>  (75) 
idAAJKgen6

$$$$

     RDKit          2D

 36 38  0  0  0  0  0  0  0  0999 V2000
    2.8730   -1.5816    0.0000 C   0  0  0  0  0  0  0  0  0  0  0  0
    1.3858   -1.3858    0.0000 C   0  0  0  0  0  0  0  0  0  0  0  0
    1.5816   -2.8730    0.0000 C   0  0  0  0  0  0  0  0  0  0  0  0
    2.9674   -3.4470    0.0000 C   0  0  0  0  0  0  0  0  0  0  0  0
    3.1632   -4.9342    0.0000 C   0  0  0  0  0  0  0  0  0  0  0  0
    4.5490   -5.5082    0.0000 C   0  0  0  0  0  0  0  0  0  0  0  0
    5.7391   -4.5951    0.0000 O   0  0  0  0  0  0  0  0  0  0  0  0
    4.7448   -6.9954    0.0000 C   0  0  0  0  0  0  0  0  0  0  0  0
    3.2453   -7.0346    0.0000 O   0  0  0  0  0  0  0  0  0  0  0  0
    4.6271   -8.4907    0.0000 C   0  0  0  0  0  0  0  0  0  0  0  0
    6.0130   -9.0648    0.0000 C   0  0  0  0  0  0  0  0  0  0  0  0
    6.9871   -7.9242    0.0000 C   0  0  0  0  0  0  0  0  0  0  0  0
    6.2034   -6.6452    0.0000 C   0  0  0  0  0  0  0  0  0  0  0  0
    4.1575   -2.5339    0.0000 C   0  0  0  0  0  0  0  0  0  0  0  0
    3.9617   -1.0467    0.0000 O   0  0  0  0  0  0  0  0  0  0  0  0
    5.5433   -3.1079    0.0000 C   0  0  0  0  0  0  0  0  0  0  0  0
    6.7333   -2.1948    0.0000 O   0  0  0  0  0  0  0  0  0  0  0  0
    1.9598    0.0000    0.0000 C   0  0  0  0  0  0  0  0  0  0  0  0
    1.3858    1.3858    0.0000 C   0  0  0  0  0  0  0  0  0  0  0  0
    0.0000    1.9598    0.0000 C   0  0  0  0  0  0  0  0  0  0  0  0
   -1.3858    1.3858    0.0000 C   0  0  0  0  0  0  0  0  0  0  0  0
   -1.9598    0.0000    0.0000 C   0  0  0  0  0  0  0  0  0  0  0  0
   -1.3858   -1.3858    0.0000 C   0  0  0  0  0  0  0  0  0  0  0  0
   -0.0000   -1.9598    0.0000 C   0  0  0  0  0  0  0  0  0  0  0  0
   -0.0000   -3.4598    0.0000 C   0  0  0  0  0  0  0  0  0  0  0  0
   -1.2990   -4.2098    0.0000 C   0  0  0  0  0  0  0  0  0  0  0  0
   -1.9091   -2.8395    0.0000 C   0  0  0  0  0  0  0  0  0  0  0  0
   -0.7272   -1.9160    0.0000 C   0  0  0  0  0  0  0  0  0  0  0  0
   -3.2795   -3.4496    0.0000 C   0  0  0  0  0  0  0  0  0  0  0  0
   -2.5192   -1.4692    0.0000 C   0  0  0  0  0  0  0  0  0  0  0  0
   -2.7256   -4.6734    0.0000 C   0  0  0  0  0  0  0  0  0  0  0  0
   -2.7256   -6.1734    0.0000 C   0  0  0  0  0  0  0  0  0  0  0  0
   -1.2990   -6.6369    0.0000 C   0  0  0  0  0  0  0  0  0  0  0  0
   -0.4174   -5.4234    0.0000 C   0  0  0  0  0  0  0  0  0  0  0  0
    0.6974   -6.4271    0.0000 C   0  0  0  0  0  0  0  0  0  0  0  0
    0.6974   -4.4197    0.0000 C   0  0  0  0  0  0  0  0  0  0  0  0
  1  2  1  0
  2  3  1  0
  3  4  1  0
  4  5  1  0
  5  6  1  0
  6  7  1  0
  6  8  1  0
  8  9  1  0
  8 10  1  0
 10 11  1  0
 11 12  1  0
 12 13  1  0
  4 14  1  0
 14 15  1  0
 14 16  1  0
 16 17  1  0
  2 18  1  0
 18 19  1  0
 19 20  1  0
 20 21  1  0
 21 22  1  0
 22 23  1  0
 23 24  1  0
 24 25  1  0
 25 26  1  0
 26 27  1  0
 27 28  1  0
 27 29  1  0
 27 30  1  0
 26 31  1  0
 31 32  1  0
 32 33  1  0
 33 34  1  0
 34 35  1  0
 34 36  1  0
 24  2  1  0
 34 26  1  0
 13  8  1  0
M  END
>  <Title>  (76) 
idAAJLgen6

$$$$

     RDKit          2D

 48 54  0  0  0  0  0  0  0  0999 V2000
    0.9563    7.2740    0.0000 C   0  0  0  0  0  0  0  0  0  0  0  0
    0.7498    5.7883    0.0000 C   0  0  0  0  0  0  0  0  0  0  0  0
   -0.6527    6.3202    0.0000 C   0  0  0  0  0  0  0  0  0  0  0  0
    2.2442    5.9176    0.0000 C   0  0  0  0  0  0  0  0  0  0  0  0
    3.2771    4.8298    0.0000 C   0  0  0  0  0  0  0  0  0  0  0  0
    3.0706    3.3441    0.0000 C   0  0  0  0  0  0  0  0  0  0  0  0
    1.7803    2.5792    0.0000 C   0  0  0  0  0  0  0  0  0  0  0  0
    3.2622    2.3471    0.0000 C   0  0  0  0  0  0  0  0  0  0  0  0
    2.7750    1.4564    0.0000 C   0  0  0  0  0  0  0  0  0  0  0  0
    4.1031    2.1535    0.0000 C   0  0  0  0  0  0  0  0  0  0  0  0
    5.3709    1.3518    0.0000 C   0  0  0  0  0  0  0  0  0  0  0  0
    6.6991    2.0489    0.0000 C   0  0  0  0  0  0  0  0  0  0  0  0
    6.9158    3.5331    0.0000 C   0  0  0  0  0  0  0  0  0  0  0  0
    8.3944    3.7857    0.0000 C   0  0  0  0  0  0  0  0  0  0  0  0
    9.0915    2.4575    0.0000 C   0  0  0  0  0  0  0  0  0  0  0  0
    8.0438    1.3841    0.0000 C   0  0  0  0  0  0  0  0  0  0  0  0
    3.1339    0.0000    0.0000 C   0  0  0  0  0  0  0  0  0  0  0  0
    2.7750   -1.4564    0.0000 C   0  0  0  0  0  0  0  0  0  0  0  0
    1.7803   -2.5792    0.0000 C   0  0  0  0  0  0  0  0  0  0  0  0
    0.3778   -3.1111    0.0000 C   0  0  0  0  0  0  0  0  0  0  0  0
   -1.1113   -2.9303    0.0000 C   0  0  0  0  0  0  0  0  0  0  0  0
   -2.3458   -2.0782    0.0000 C   0  0  0  0  0  0  0  0  0  0  0  0
   -3.4686   -3.0729    0.0000 C   0  0  0  0  0  0  0  0  0  0  0  0
   -4.8914   -2.5979    0.0000 C   0  0  0  0  0  0  0  0  0  0  0  0
   -6.0141   -3.5926    0.0000 C   0  0  0  0  0  0  0  0  0  0  0  0
   -5.8694   -5.0855    0.0000 C   0  0  0  0  0  0  0  0  0  0  0  0
   -7.2445   -5.6846    0.0000 C   0  0  0  0  0  0  0  0  0  0  0  0
   -8.2392   -4.5618    0.0000 C   0  0  0  0  0  0  0  0  0  0  0  0
   -7.4788   -3.2689    0.0000 C   0  0  0  0  0  0  0  0  0  0  0  0
   -3.0429   -0.7500    0.0000 C   0  0  0  0  0  0  0  0  0  0  0  0
   -3.0429    0.7500    0.0000 C   0  0  0  0  0  0  0  0  0  0  0  0
   -2.3458    2.0782    0.0000 C   0  0  0  0  0  0  0  0  0  0  0  0
   -1.1113    2.9303    0.0000 C   0  0  0  0  0  0  0  0  0  0  0  0
    0.3778    3.1111    0.0000 C   0  0  0  0  0  0  0  0  0  0  0  0
   -0.8854    3.9201    0.0000 C   0  0  0  0  0  0  0  0  0  0  0  0
   -0.0808    4.5393    0.0000 C   0  0  0  0  0  0  0  0  0  0  0  0
   -1.5666    4.7457    0.0000 C   0  0  0  0  0  0  0  0  0  0  0  0
   -2.1306    6.1357    0.0000 C   0  0  0  0  0  0  0  0  0  0  0  0
   -3.6163    6.3421    0.0000 C   0  0  0  0  0  0  0  0  0  0  0  0
   -4.1804    7.7320    0.0000 C   0  0  0  0  0  0  0  0  0  0  0  0
   -5.6661    7.9385    0.0000 C   0  0  0  0  0  0  0  0  0  0  0  0
   -6.5878    6.7551    0.0000 C   0  0  0  0  0  0  0  0  0  0  0  0
   -6.0237    5.3652    0.0000 C   0  0  0  0  0  0  0  0  0  0  0  0
   -3.4652    7.4298    0.0000 C   0  0  0  0  0  0  0  0  0  0  0  0
   -3.2587    8.9155    0.0000 C   0  0  0  0  0  0  0  0  0  0  0  0
   -4.7444    9.1220    0.0000 C   0  0  0  0  0  0  0  0  0  0  0  0
   -2.6947    7.5256    0.0000 C   0  0  0  0  0  0  0  0  0  0  0  0
   -4.5380    5.1587    0.0000 C   0  0  0  0  0  0  0  0  0  0  0  0
  1  2  1  0
  2  3  1  0
  2  4  1  0
  4  5  1  0
  5  6  1  0
  6  7  1  0
  7  8  1  0
  7  9  1  0
  9 10  1  0
 10 11  1  0
 11 12  1  0
 12 13  1  0
 13 14  1  0
 14 15  1  0
 15 16  1  0
  9 17  1  0
 17 18  1  0
 18 19  1  0
 19 20  1  0
 20 21  1  0
 21 22  1  0
 22 23  1  0
 23 24  1  0
 24 25  1  0
 25 26  1  0
 26 27  1  0
 27 28  1  0
 28 29  1  0
 22 30  1  0
 30 31  1  0
 31 32  1  0
 32 33  1  0
 33 34  1  0
 34 35  1  0
 34 36  1  0
 36 37  1  0
 37 38  1  0
 38 39  1  0
 39 40  1  0
 40 41  1  0
 41 42  1  0
 42 43  1  0
 43 44  1  0
 44 45  1  0
 45 46  1  0
 45 47  1  0
 43 48  1  0
 36  2  1  0
 47 39  1  0
 34  7  1  0
 48 39  1  0
 16 12  1  0
 29 25  1  0
 46 41  1  0
M  END
>  <Title>  (77) 
idAAJMgen6

$$$$

     RDKit          2D

 74 80  0  0  0  0  0  0  0  0999 V2000
    2.5860    1.9635    0.0000 C   0  0  0  0  0  0  0  0  0  0  0  0
    1.0860    1.9635    0.0000 C   0  0  0  0  0  0  0  0  0  0  0  0
    0.8663    1.1972    0.0000 C   0  0  0  0  0  0  0  0  0  0  0  0
    0.3360    3.2626    0.0000 C   0  0  0  0  0  0  0  0  0  0  0  0
    1.0860    4.5616    0.0000 N   0  0  0  0  0  0  0  0  0  0  0  0
    0.3360    5.8606    0.0000 C   0  0  0  0  0  0  0  0  0  0  0  0
   -1.1640    5.8606    0.0000 O   0  0  0  0  0  0  0  0  0  0  0  0
    1.0860    7.1597    0.0000 C   0  0  0  0  0  0  0  0  0  0  0  0
    2.5860    7.1597    0.0000 C   0  0  0  0  0  0  0  0  0  0  0  0
    3.3360    5.8606    0.0000 C   0  0  0  0  0  0  0  0  0  0  0  0
    2.5860    4.5616    0.0000 C   0  0  0  0  0  0  0  0  0  0  0  0
    3.3360    3.2626    0.0000 C   0  0  0  0  0  0  0  0  0  0  0  0
    4.8360    3.2626    0.0000 C   0  0  0  0  0  0  0  0  0  0  0  0
    5.5860    4.5616    0.0000 C   0  0  0  0  0  0  0  0  0  0  0  0
    4.8360    5.8606    0.0000 C   0  0  0  0  0  0  0  0  0  0  0  0
    0.3360    8.4587    0.0000 N   0  0  0  0  0  0  0  0  0  0  0  0
   -1.1640    8.4587    0.0000 C   0  0  0  0  0  0  0  0  0  0  0  0
   -1.9140    7.1597    0.0000 O   0  0  0  0  0  0  0  0  0  0  0  0
   -1.9140    9.7578    0.0000 C   0  0  0  0  0  0  0  0  0  0  0  0
   -1.1640   11.0568    0.0000 C   0  0  0  0  0  0  0  0  0  0  0  0
    0.3360   11.0568    0.0000 C   0  0  0  0  0  0  0  0  0  0  0  0
    1.0860    9.7578    0.0000 C   0  0  0  0  0  0  0  0  0  0  0  0
    2.5860    9.7578    0.0000 C   0  0  0  0  0  0  0  0  0  0  0  0
    3.3360   11.0568    0.0000 C   0  0  0  0  0  0  0  0  0  0  0  0
    2.5860   12.3558    0.0000 C   0  0  0  0  0  0  0  0  0  0  0  0
    1.0860   12.3558    0.0000 C   0  0  0  0  0  0  0  0  0  0  0  0
   -3.4140    9.7578    0.0000 N   0  0  0  0  0  0  0  0  0  0  0  0
   -4.1640    8.4587    0.0000 C   0  0  0  0  0  0  0  0  0  0  0  0
   -3.4140    7.1597    0.0000 O   0  0  0  0  0  0  0  0  0  0  0  0
   -5.6640    8.4587    0.0000 C   0  0  0  0  0  0  0  0  0  0  0  0
   -6.4140    9.7578    0.0000 C   0  0  0  0  0  0  0  0  0  0  0  0
   -5.6640   11.0568    0.0000 C   0  0  0  0  0  0  0  0  0  0  0  0
   -4.1640   11.0568    0.0000 C   0  0  0  0  0  0  0  0  0  0  0  0
   -3.4140   12.3558    0.0000 C   0  0  0  0  0  0  0  0  0  0  0  0
   -4.1640   13.6549    0.0000 C   0  0  0  0  0  0  0  0  0  0  0  0
   -5.6640   13.6549    0.0000 C   0  0  0  0  0  0  0  0  0  0  0  0
   -6.4140   12.3558    0.0000 C   0  0  0  0  0  0  0  0  0  0  0  0
   -6.4140    7.1597    0.0000 N   0  0  0  0  0  0  0  0  0  0  0  0
   -5.6640    5.8606    0.0000 C   0  0  0  0  0  0  0  0  0  0  0  0
   -4.1640    5.8606    0.0000 O   0  0  0  0  0  0  0  0  0  0  0  0
   -6.4140    4.5616    0.0000 C   0  0  0  0  0  0  0  0  0  0  0  0
   -7.9140    4.5616    0.0000 C   0  0  0  0  0  0  0  0  0  0  0  0
   -8.6640    5.8606    0.0000 C   0  0  0  0  0  0  0  0  0  0  0  0
   -7.9140    7.1597    0.0000 C   0  0  0  0  0  0  0  0  0  0  0  0
   -8.6640    8.4587    0.0000 C   0  0  0  0  0  0  0  0  0  0  0  0
  -10.1640    8.4587    0.0000 C   0  0  0  0  0  0  0  0  0  0  0  0
  -10.9140    7.1597    0.0000 C   0  0  0  0  0  0  0  0  0  0  0  0
  -10.1640    5.8606    0.0000 C   0  0  0  0  0  0  0  0  0  0  0  0
   -5.6640    3.2626    0.0000 N   0  0  0  0  0  0  0  0  0  0  0  0
   -4.1640    3.2626    0.0000 C   0  0  0  0  0  0  0  0  0  0  0  0
   -3.4140    4.5616    0.0000 O   0  0  0  0  0  0  0  0  0  0  0  0
   -3.4140    1.9635    0.0000 O   0  0  0  0  0  0  0  0  0  0  0  0
   -4.1640    0.6645    0.0000 C   0  0  0  0  0  0  0  0  0  0  0  0
   -5.6557    0.5077    0.0000 C   0  0  0  0  0  0  0  0  0  0  0  0
   -5.9676   -0.9595    0.0000 O   0  0  0  0  0  0  0  0  0  0  0  0
   -4.6686   -1.7095    0.0000 C   0  0  0  0  0  0  0  0  0  0  0  0
   -4.0585   -3.0798    0.0000 O   0  0  0  0  0  0  0  0  0  0  0  0
   -2.5667   -2.9231    0.0000 C   0  0  0  0  0  0  0  0  0  0  0  0
   -2.2548   -1.4558    0.0000 C   0  0  0  0  0  0  0  0  0  0  0  0
   -3.5539   -0.7058    0.0000 C   0  0  0  0  0  0  0  0  0  0  0  0
   -1.1640    3.2626    0.0000 C   0  0  0  0  0  0  0  0  0  0  0  0
   -1.9140    4.5616    0.0000 O   0  0  0  0  0  0  0  0  0  0  0  0
   -1.9140    1.9635    0.0000 N   0  0  0  0  0  0  0  0  0  0  0  0
   -1.1640    0.6645    0.0000 C   0  0  0  0  0  0  0  0  0  0  0  0
    0.3360    0.6645    0.0000 C   0  0  0  0  0  0  0  0  0  0  0  0
    1.0860   -0.6346    0.0000 C   0  0  0  0  0  0  0  0  0  0  0  0
    2.5860   -0.6346    0.0000 C   0  0  0  0  0  0  0  0  0  0  0  0
    3.3360   -1.9336    0.0000 C   0  0  0  0  0  0  0  0  0  0  0  0
    2.5860   -3.2326    0.0000 C   0  0  0  0  0  0  0  0  0  0  0  0
    1.0860   -3.2326    0.0000 C   0  0  0  0  0  0  0  0  0  0  0  0
    0.3360   -1.9336    0.0000 C   0  0  0  0  0  0  0  0  0  0  0  0
   -1.9140   -0.6346    0.0000 C   0  0  0  0  0  0  0  0  0  0  0  0
   -2.6874   -0.8274    0.0000 O   0  0  0  0  0  0  0  0  0  0  0  0
   -1.1640   -1.9336    0.0000 O   0  0  0  0  0  0  0  0  0  0  0  0
  1  2  1  0
  2  3  1  0
  2  4  1  0
  4  5  1  0
  5  6  1  0
  6  7  2  0
  6  8  1  0
  8  9  1  0
  9 10  1  0
 10 11  2  0
 11 12  1  0
 12 13  2  0
 13 14  1  0
 14 15  2  0
  8 16  1  0
 16 17  1  0
 17 18  2  0
 17 19  1  0
 19 20  1  0
 20 21  1  0
 21 22  2  0
 22 23  1  0
 23 24  2  0
 24 25  1  0
 25 26  2  0
 19 27  1  0
 27 28  1  0
 28 29  2  0
 28 30  1  0
 30 31  1  0
 31 32  1  0
 32 33  2  0
 33 34  1  0
 34 35  2  0
 35 36  1  0
 36 37  2  0
 30 38  1  0
 38 39  1  0
 39 40  2  0
 39 41  1  0
 41 42  1  0
 42 43  1  0
 43 44  2  0
 44 45  1  0
 45 46  2  0
 46 47  1  0
 47 48  2  0
 41 49  1  0
 49 50  1  0
 50 51  2  0
 50 52  1  0
 52 53  1  0
 53 54  1  0
 54 55  1  0
 55 56  1  0
 56 57  1  0
 57 58  1  0
 58 59  1  0
 59 60  1  0
  4 61  1  0
 61 62  2  0
 61 63  1  0
 63 64  1  0
 64 65  1  0
 65 66  1  0
 66 67  2  0
 67 68  1  0
 68 69  2  0
 69 70  1  0
 70 71  2  0
 64 72  1  0
 72 73  2  0
 72 74  1  0
 15 10  1  0
 26 21  1  0
 37 32  1  0
 48 43  1  0
 60 53  1  0
 71 66  1  0
 60 56  1  0
M  END
>  <Title>  (78) 
idAAJNgen6

$$$$

     RDKit          2D

 46 50  0  0  0  0  0  0  0  0999 V2000
    5.2500   -3.8971    0.0000 O   0  0  0  0  0  0  0  0  0  0  0  0
    6.0000   -5.1962    0.0000 C   0  0  0  0  0  0  0  0  0  0  0  0
    7.5000   -5.1962    0.0000 O   0  0  0  0  0  0  0  0  0  0  0  0
    5.2500   -6.4952    0.0000 C   0  0  0  0  0  0  0  0  0  0  0  0
    6.0000   -7.7942    0.0000 C   0  0  0  0  0  0  0  0  0  0  0  0
    7.5000   -7.7942    0.0000 C   0  0  0  0  0  0  0  0  0  0  0  0
    8.2500   -9.0933    0.0000 C   0  0  0  0  0  0  0  0  0  0  0  0
    9.7500   -9.0933    0.0000 C   0  0  0  0  0  0  0  0  0  0  0  0
   10.5000   -7.7942    0.0000 C   0  0  0  0  0  0  0  0  0  0  0  0
    9.7500   -6.4952    0.0000 C   0  0  0  0  0  0  0  0  0  0  0  0
    8.2500   -6.4952    0.0000 C   0  0  0  0  0  0  0  0  0  0  0  0
    3.7500   -6.4952    0.0000 N   0  0  0  0  0  0  0  0  0  0  0  0
    3.0000   -5.1962    0.0000 C   0  0  0  0  0  0  0  0  0  0  0  0
    3.7500   -3.8971    0.0000 O   0  0  0  0  0  0  0  0  0  0  0  0
    1.5000   -5.1962    0.0000 C   0  0  0  0  0  0  0  0  0  0  0  0
    0.7500   -6.4952    0.0000 C   0  0  0  0  0  0  0  0  0  0  0  0
    1.5000   -7.7942    0.0000 C   0  0  0  0  0  0  0  0  0  0  0  0
    0.7500   -9.0933    0.0000 C   0  0  0  0  0  0  0  0  0  0  0  0
    1.5000  -10.3923    0.0000 C   0  0  0  0  0  0  0  0  0  0  0  0
    3.0000  -10.3923    0.0000 C   0  0  0  0  0  0  0  0  0  0  0  0
    3.7500   -9.0933    0.0000 C   0  0  0  0  0  0  0  0  0  0  0  0
    3.0000   -7.7942    0.0000 C   0  0  0  0  0  0  0  0  0  0  0  0
    0.7500   -3.8971    0.0000 C   0  0  0  0  0  0  0  0  0  0  0  0
   -0.7500   -3.8971    0.0000 O   0  0  0  0  0  0  0  0  0  0  0  0
    1.5000   -2.5981    0.0000 N   0  0  0  0  0  0  0  0  0  0  0  0
    0.7500   -1.2990    0.0000 C   0  0  0  0  0  0  0  0  0  0  0  0
    1.5000    0.0000    0.0000 C   0  0  0  0  0  0  0  0  0  0  0  0
    0.7500    1.2990    0.0000 C   0  0  0  0  0  0  0  0  0  0  0  0
   -0.7500    1.2990    0.0000 C   0  0  0  0  0  0  0  0  0  0  0  0
   -1.5000    0.0000    0.0000 C   0  0  0  0  0  0  0  0  0  0  0  0
   -0.7500   -1.2990    0.0000 C   0  0  0  0  0  0  0  0  0  0  0  0
   -0.0000   -0.0000    0.0000 C   0  0  0  0  0  0  0  0  0  0  0  0
    0.7500   -1.2990    0.0000 C   0  0  0  0  0  0  0  0  0  0  0  0
    2.2500   -1.2990    0.0000 O   0  0  0  0  0  0  0  0  0  0  0  0
   -0.0000   -2.5981    0.0000 N   0  0  0  0  0  0  0  0  0  0  0  0
    0.7500   -3.8971    0.0000 C   0  0  0  0  0  0  0  0  0  0  0  0
   -0.0000   -5.1962    0.0000 C   0  0  0  0  0  0  0  0  0  0  0  0
    0.7500   -6.4952    0.0000 C   0  0  0  0  0  0  0  0  0  0  0  0
   -0.0000   -7.7942    0.0000 C   0  0  0  0  0  0  0  0  0  0  0  0
    0.7500   -9.0933    0.0000 C   0  0  0  0  0  0  0  0  0  0  0  0
    2.2500   -9.0933    0.0000 C   0  0  0  0  0  0  0  0  0  0  0  0
    3.0000   -7.7942    0.0000 C   0  0  0  0  0  0  0  0  0  0  0  0
    2.2500   -6.4952    0.0000 C   0  0  0  0  0  0  0  0  0  0  0  0
    2.2500   -3.8971    0.0000 C   0  0  0  0  0  0  0  0  0  0  0  0
    3.0000   -2.5981    0.0000 O   0  0  0  0  0  0  0  0  0  0  0  0
    3.2920   -4.9761    0.0000 O   0  0  0  0  0  0  0  0  0  0  0  0
  1  2  2  0
  2  3  1  0
  2  4  1  0
  4  5  1  0
  5  6  1  0
  6  7  2  0
  7  8  1  0
  8  9  2  0
  9 10  1  0
 10 11  2  0
  4 12  1  0
 12 13  1  0
 13 14  2  0
 13 15  1  0
 15 16  1  0
 16 17  1  0
 17 18  2  0
 18 19  1  0
 19 20  2  0
 20 21  1  0
 21 22  2  0
 15 23  1  0
 23 24  2  0
 23 25  1  0
 25 26  1  0
 26 27  1  0
 27 28  1  0
 28 29  1  0
 29 30  1  0
 30 31  1  0
 30 32  1  0
 32 33  1  0
 33 34  2  0
 33 35  1  0
 35 36  1  0
 36 37  1  0
 37 38  1  0
 38 39  2  0
 39 40  1  0
 40 41  2  0
 41 42  1  0
 42 43  2  0
 36 44  1  0
 44 45  2  0
 44 46  1  0
 11  6  1  0
 22 17  1  0
 31 26  1  0
 43 38  1  0
 32 28  1  0
M  END
>  <Title>  (79) 
idAAJOgen6

$$$$

     RDKit          2D

 17 17  0  0  0  0  0  0  0  0999 V2000
    5.4786   -1.2990    0.0000 C   0  0  0  0  0  0  0  0  0  0  0  0
    3.9786   -1.2990    0.0000 C   0  0  0  0  0  0  0  0  0  0  0  0
    3.2286   -2.5981    0.0000 C   0  0  0  0  0  0  0  0  0  0  0  0
    3.2286   -0.0000    0.0000 C   0  0  0  0  0  0  0  0  0  0  0  0
    1.7286    0.0000    0.0000 C   0  0  0  0  0  0  0  0  0  0  0  0
    1.0777    1.3515    0.0000 C   0  0  0  0  0  0  0  0  0  0  0  0
   -0.3846    1.6852    0.0000 C   0  0  0  0  0  0  0  0  0  0  0  0
   -1.5574    0.7500    0.0000 C   0  0  0  0  0  0  0  0  0  0  0  0
   -1.5574   -0.7500    0.0000 C   0  0  0  0  0  0  0  0  0  0  0  0
   -2.2082   -2.1015    0.0000 C   0  0  0  0  0  0  0  0  0  0  0  0
   -3.0198   -0.4162    0.0000 C   0  0  0  0  0  0  0  0  0  0  0  0
   -0.3846   -1.6852    0.0000 C   0  0  0  0  0  0  0  0  0  0  0  0
   -0.7184   -3.1476    0.0000 C   0  0  0  0  0  0  0  0  0  0  0  0
   -2.1808   -2.8138    0.0000 C   0  0  0  0  0  0  0  0  0  0  0  0
    0.7440   -3.4814    0.0000 C   0  0  0  0  0  0  0  0  0  0  0  0
   -1.0522   -4.6100    0.0000 C   0  0  0  0  0  0  0  0  0  0  0  0
    1.0777   -1.3515    0.0000 C   0  0  0  0  0  0  0  0  0  0  0  0
  1  2  1  0
  2  3  1  0
  2  4  1  0
  4  5  1  0
  5  6  1  0
  6  7  1  0
  7  8  1  0
  8  9  1  0
  9 10  1  0
  9 11  1  0
  9 12  1  0
 12 13  1  0
 13 14  1  0
 13 15  1  0
 13 16  1  0
 12 17  1  0
 17  5  1  0
M  END
>  <Title>  (80) 
idAAJPgen6

$$$$

     RDKit          2D

 35 40  0  0  0  0  0  0  0  0999 V2000
   -2.1727    5.1303    0.0000 C   0  0  0  0  0  0  0  0  0  0  0  0
   -3.3454    4.1950    0.0000 C   0  0  0  0  0  0  0  0  0  0  0  0
   -4.5182    3.2598    0.0000 C   0  0  0  0  0  0  0  0  0  0  0  0
   -4.2807    5.3678    0.0000 C   0  0  0  0  0  0  0  0  0  0  0  0
   -2.4102    3.0223    0.0000 C   0  0  0  0  0  0  0  0  0  0  0  0
   -0.9117    3.0896    0.0000 C   0  0  0  0  0  0  0  0  0  0  0  0
   -0.3846    1.6852    0.0000 C   0  0  0  0  0  0  0  0  0  0  0  0
    0.6023    2.8148    0.0000 C   0  0  0  0  0  0  0  0  0  0  0  0
    1.0777    1.3515    0.0000 C   0  0  0  0  0  0  0  0  0  0  0  0
    2.0130    2.5242    0.0000 C   0  0  0  0  0  0  0  0  0  0  0  0
    3.4962    2.3006    0.0000 C   0  0  0  0  0  0  0  0  0  0  0  0
    4.4315    3.4734    0.0000 C   0  0  0  0  0  0  0  0  0  0  0  0
    4.0324    4.9193    0.0000 C   0  0  0  0  0  0  0  0  0  0  0  0
    5.2843    5.7457    0.0000 C   0  0  0  0  0  0  0  0  0  0  0  0
    6.4570    4.8104    0.0000 C   0  0  0  0  0  0  0  0  0  0  0  0
    5.9300    3.4061    0.0000 C   0  0  0  0  0  0  0  0  0  0  0  0
    1.7286    0.0000    0.0000 C   0  0  0  0  0  0  0  0  0  0  0  0
    1.0777   -1.3515    0.0000 C   0  0  0  0  0  0  0  0  0  0  0  0
   -0.3846   -1.6852    0.0000 C   0  0  0  0  0  0  0  0  0  0  0  0
   -1.5574   -0.7500    0.0000 C   0  0  0  0  0  0  0  0  0  0  0  0
   -1.5574    0.7500    0.0000 C   0  0  0  0  0  0  0  0  0  0  0  0
   -2.8783    0.0392    0.0000 C   0  0  0  0  0  0  0  0  0  0  0  0
   -2.8093    1.5763    0.0000 C   0  0  0  0  0  0  0  0  0  0  0  0
   -4.2136    1.0493    0.0000 C   0  0  0  0  0  0  0  0  0  0  0  0
   -5.3722    2.0020    0.0000 C   0  0  0  0  0  0  0  0  0  0  0  0
   -6.7766    1.4749    0.0000 C   0  0  0  0  0  0  0  0  0  0  0  0
   -7.9352    2.4276    0.0000 C   0  0  0  0  0  0  0  0  0  0  0  0
   -9.3396    1.9005    0.0000 C   0  0  0  0  0  0  0  0  0  0  0  0
   -9.5853    0.4208    0.0000 C   0  0  0  0  0  0  0  0  0  0  0  0
   -8.4267   -0.5319    0.0000 C   0  0  0  0  0  0  0  0  0  0  0  0
   -7.1624    2.5030    0.0000 C   0  0  0  0  0  0  0  0  0  0  0  0
   -7.6895    3.9073    0.0000 C   0  0  0  0  0  0  0  0  0  0  0  0
   -9.0938    3.3802    0.0000 C   0  0  0  0  0  0  0  0  0  0  0  0
   -6.5309    2.9546    0.0000 C   0  0  0  0  0  0  0  0  0  0  0  0
   -7.0223   -0.0048    0.0000 C   0  0  0  0  0  0  0  0  0  0  0  0
  1  2  1  0
  2  3  1  0
  2  4  1  0
  2  5  1  0
  5  6  1  0
  6  7  1  0
  7  8  1  0
  7  9  1  0
  9 10  1  0
 10 11  1  0
 11 12  1  0
 12 13  1  0
 13 14  1  0
 14 15  1  0
 15 16  1  0
  9 17  1  0
 17 18  1  0
 18 19  1  0
 19 20  1  0
 20 21  1  0
 21 22  1  0
 21 23  1  0
 23 24  1  0
 24 25  1  0
 25 26  1  0
 26 27  1  0
 27 28  1  0
 28 29  1  0
 29 30  1  0
 30 31  1  0
 31 32  1  0
 32 33  1  0
 32 34  1  0
 30 35  1  0
 23  5  1  0
 34 26  1  0
 21  7  1  0
 35 26  1  0
 16 12  1  0
 33 28  1  0
M  END
>  <Title>  (81) 
idAAJQgen6

$$$$

     RDKit          2D

 47 51  0  0  0  0  0  0  0  0999 V2000
   -4.6888    1.5942    0.0000 O   0  0  0  0  0  0  0  0  0  0  0  0
   -3.4031    2.3668    0.0000 C   0  0  0  0  0  0  0  0  0  0  0  0
   -3.2463    3.8586    0.0000 N   0  0  0  0  0  0  0  0  0  0  0  0
   -4.4598    4.7402    0.0000 C   0  0  0  0  0  0  0  0  0  0  0  0
   -4.3030    6.2320    0.0000 C   0  0  0  0  0  0  0  0  0  0  0  0
   -5.5165    7.1137    0.0000 C   0  0  0  0  0  0  0  0  0  0  0  0
   -5.3597    8.6055    0.0000 C   0  0  0  0  0  0  0  0  0  0  0  0
   -6.5733    9.4872    0.0000 C   0  0  0  0  0  0  0  0  0  0  0  0
   -7.9436    8.8771    0.0000 C   0  0  0  0  0  0  0  0  0  0  0  0
   -8.1004    7.3853    0.0000 C   0  0  0  0  0  0  0  0  0  0  0  0
   -6.8869    6.5036    0.0000 C   0  0  0  0  0  0  0  0  0  0  0  0
   -5.8301    4.1301    0.0000 C   0  0  0  0  0  0  0  0  0  0  0  0
   -5.9869    2.6383    0.0000 O   0  0  0  0  0  0  0  0  0  0  0  0
   -7.0436    5.0118    0.0000 N   0  0  0  0  0  0  0  0  0  0  0  0
   -8.4140    4.4017    0.0000 C   0  0  0  0  0  0  0  0  0  0  0  0
   -9.6275    5.2834    0.0000 C   0  0  0  0  0  0  0  0  0  0  0  0
  -10.9978    4.6733    0.0000 C   0  0  0  0  0  0  0  0  0  0  0  0
  -12.2113    5.5550    0.0000 C   0  0  0  0  0  0  0  0  0  0  0  0
  -13.5817    4.9449    0.0000 C   0  0  0  0  0  0  0  0  0  0  0  0
  -13.7384    3.4531    0.0000 C   0  0  0  0  0  0  0  0  0  0  0  0
  -12.5249    2.5714    0.0000 C   0  0  0  0  0  0  0  0  0  0  0  0
  -11.1546    3.1815    0.0000 C   0  0  0  0  0  0  0  0  0  0  0  0
   -8.5708    2.9099    0.0000 C   0  0  0  0  0  0  0  0  0  0  0  0
   -7.3572    2.0282    0.0000 O   0  0  0  0  0  0  0  0  0  0  0  0
   -9.9411    2.2998    0.0000 O   0  0  0  0  0  0  0  0  0  0  0  0
   -2.1895    1.4851    0.0000 C   0  0  0  0  0  0  0  0  0  0  0  0
   -0.8192    2.0952    0.0000 C   0  0  0  0  0  0  0  0  0  0  0  0
    0.3943    1.2135    0.0000 C   0  0  0  0  0  0  0  0  0  0  0  0
    1.2760    0.0000    0.0000 C   0  0  0  0  0  0  0  0  0  0  0  0
    0.3943   -1.2135    0.0000 C   0  0  0  0  0  0  0  0  0  0  0  0
   -1.0323   -0.7500    0.0000 C   0  0  0  0  0  0  0  0  0  0  0  0
   -2.3463   -0.0067    0.0000 C   0  0  0  0  0  0  0  0  0  0  0  0
   -1.0323    0.7500    0.0000 C   0  0  0  0  0  0  0  0  0  0  0  0
   -2.2458    1.6317    0.0000 C   0  0  0  0  0  0  0  0  0  0  0  0
   -3.6161    1.0216    0.0000 O   0  0  0  0  0  0  0  0  0  0  0  0
   -2.0890    3.1235    0.0000 N   0  0  0  0  0  0  0  0  0  0  0  0
   -3.3025    4.0051    0.0000 C   0  0  0  0  0  0  0  0  0  0  0  0
   -3.1458    5.4969    0.0000 C   0  0  0  0  0  0  0  0  0  0  0  0
   -4.3593    6.3786    0.0000 C   0  0  0  0  0  0  0  0  0  0  0  0
   -4.2025    7.8704    0.0000 C   0  0  0  0  0  0  0  0  0  0  0  0
   -5.4160    8.7521    0.0000 C   0  0  0  0  0  0  0  0  0  0  0  0
   -6.7863    8.1420    0.0000 C   0  0  0  0  0  0  0  0  0  0  0  0
   -6.9431    6.6502    0.0000 C   0  0  0  0  0  0  0  0  0  0  0  0
   -5.7296    5.7685    0.0000 C   0  0  0  0  0  0  0  0  0  0  0  0
   -4.6729    3.3950    0.0000 C   0  0  0  0  0  0  0  0  0  0  0  0
   -5.0103    1.9335    0.0000 O   0  0  0  0  0  0  0  0  0  0  0  0
   -6.0637    3.9569    0.0000 O   0  0  0  0  0  0  0  0  0  0  0  0
  1  2  2  0
  2  3  1  0
  3  4  1  0
  4  5  1  0
  5  6  1  0
  6  7  2  0
  7  8  1  0
  8  9  2  0
  9 10  1  0
 10 11  2  0
  4 12  1  0
 12 13  2  0
 12 14  1  0
 14 15  1  0
 15 16  1  0
 16 17  1  0
 17 18  2  0
 18 19  1  0
 19 20  2  0
 20 21  1  0
 21 22  2  0
 15 23  1  0
 23 24  2  0
 23 25  1  0
  2 26  1  0
 26 27  1  0
 27 28  1  0
 28 29  1  0
 29 30  1  0
 30 31  1  0
 31 32  1  0
 31 33  1  0
 33 34  1  0
 34 35  2  0
 34 36  1  0
 36 37  1  0
 37 38  1  0
 38 39  1  0
 39 40  2  0
 40 41  1  0
 41 42  2  0
 42 43  1  0
 43 44  2  0
 37 45  1  0
 45 46  2  0
 45 47  1  0
 11  6  1  0
 22 17  1  0
 32 26  1  0
 44 39  1  0
 33 28  1  0
M  END
>  <Title>  (82) 
idAAJRgen6

$$$$

     RDKit          2D

 66 73  0  0  0  0  0  0  0  0999 V2000
   -1.3754   -5.9835    0.0000 O   0  0  0  0  0  0  0  0  0  0  0  0
   -1.5000   -5.1962    0.0000 C   0  0  0  0  0  0  0  0  0  0  0  0
   -0.7500   -3.8971    0.0000 N   0  0  0  0  0  0  0  0  0  0  0  0
    0.7500   -3.8971    0.0000 C   0  0  0  0  0  0  0  0  0  0  0  0
    1.5000   -5.1962    0.0000 C   0  0  0  0  0  0  0  0  0  0  0  0
    0.7500   -6.4952    0.0000 C   0  0  0  0  0  0  0  0  0  0  0  0
   -0.7500   -6.4952    0.0000 C   0  0  0  0  0  0  0  0  0  0  0  0
   -1.5000   -7.7942    0.0000 C   0  0  0  0  0  0  0  0  0  0  0  0
   -0.7500   -9.0933    0.0000 C   0  0  0  0  0  0  0  0  0  0  0  0
    0.7500   -9.0933    0.0000 C   0  0  0  0  0  0  0  0  0  0  0  0
    1.5000   -7.7942    0.0000 C   0  0  0  0  0  0  0  0  0  0  0  0
    1.5000   -2.5981    0.0000 C   0  0  0  0  0  0  0  0  0  0  0  0
    2.9888   -2.4152    0.0000 O   0  0  0  0  0  0  0  0  0  0  0  0
    0.7500   -1.2990    0.0000 N   0  0  0  0  0  0  0  0  0  0  0  0
    1.5000    0.0000    0.0000 C   0  0  0  0  0  0  0  0  0  0  0  0
    0.7500    1.2990    0.0000 C   0  0  0  0  0  0  0  0  0  0  0  0
   -0.7500    1.2990    0.0000 C   0  0  0  0  0  0  0  0  0  0  0  0
   -1.5000    0.0000    0.0000 C   0  0  0  0  0  0  0  0  0  0  0  0
   -0.7500   -1.2990    0.0000 C   0  0  0  0  0  0  0  0  0  0  0  0
   -0.0000   -0.0000    0.0000 C   0  0  0  0  0  0  0  0  0  0  0  0
    0.7500   -1.2990    0.0000 C   0  0  0  0  0  0  0  0  0  0  0  0
    2.2054   -0.9361    0.0000 O   0  0  0  0  0  0  0  0  0  0  0  0
   -0.0000   -2.5981    0.0000 N   0  0  0  0  0  0  0  0  0  0  0  0
    0.7500   -3.8971    0.0000 C   0  0  0  0  0  0  0  0  0  0  0  0
   -0.0000   -5.1962    0.0000 C   0  0  0  0  0  0  0  0  0  0  0  0
    0.7500   -6.4952    0.0000 C   0  0  0  0  0  0  0  0  0  0  0  0
   -0.0000   -7.7942    0.0000 C   0  0  0  0  0  0  0  0  0  0  0  0
    0.7500   -9.0933    0.0000 C   0  0  0  0  0  0  0  0  0  0  0  0
    2.2500   -9.0933    0.0000 C   0  0  0  0  0  0  0  0  0  0  0  0
    3.0000   -7.7942    0.0000 C   0  0  0  0  0  0  0  0  0  0  0  0
    2.2500   -6.4952    0.0000 C   0  0  0  0  0  0  0  0  0  0  0  0
    2.2500   -3.8971    0.0000 C   0  0  0  0  0  0  0  0  0  0  0  0
    3.1528   -2.6992    0.0000 O   0  0  0  0  0  0  0  0  0  0  0  0
    3.0000   -5.1962    0.0000 N   0  0  0  0  0  0  0  0  0  0  0  0
    4.5000   -5.1962    0.0000 C   0  0  0  0  0  0  0  0  0  0  0  0
    5.2500   -6.4952    0.0000 C   0  0  0  0  0  0  0  0  0  0  0  0
    6.7500   -6.4952    0.0000 C   0  0  0  0  0  0  0  0  0  0  0  0
    7.5000   -7.7942    0.0000 C   0  0  0  0  0  0  0  0  0  0  0  0
    9.0000   -7.7942    0.0000 C   0  0  0  0  0  0  0  0  0  0  0  0
    9.7500   -6.4952    0.0000 C   0  0  0  0  0  0  0  0  0  0  0  0
    9.0000   -5.1962    0.0000 C   0  0  0  0  0  0  0  0  0  0  0  0
    7.5000   -5.1962    0.0000 C   0  0  0  0  0  0  0  0  0  0  0  0
    5.2500   -3.8971    0.0000 C   0  0  0  0  0  0  0  0  0  0  0  0
    4.8366   -2.4552    0.0000 O   0  0  0  0  0  0  0  0  0  0  0  0
    6.7500   -3.8971    0.0000 O   0  0  0  0  0  0  0  0  0  0  0  0
   -3.0000   -5.1962    0.0000 C   0  0  0  0  0  0  0  0  0  0  0  0
   -3.7500   -3.8971    0.0000 C   0  0  0  0  0  0  0  0  0  0  0  0
   -5.2500   -3.8971    0.0000 C   0  0  0  0  0  0  0  0  0  0  0  0
   -6.0000   -5.1962    0.0000 C   0  0  0  0  0  0  0  0  0  0  0  0
   -5.2500   -6.4952    0.0000 C   0  0  0  0  0  0  0  0  0  0  0  0
   -3.7500   -6.4952    0.0000 C   0  0  0  0  0  0  0  0  0  0  0  0
   -4.5000   -5.1962    0.0000 C   0  0  0  0  0  0  0  0  0  0  0  0
   -3.0000   -5.1962    0.0000 C   0  0  0  0  0  0  0  0  0  0  0  0
   -2.2500   -6.4952    0.0000 O   0  0  0  0  0  0  0  0  0  0  0  0
   -2.2500   -3.8971    0.0000 N   0  0  0  0  0  0  0  0  0  0  0  0
   -0.7500   -3.8971    0.0000 C   0  0  0  0  0  0  0  0  0  0  0  0
    0.0000   -2.5981    0.0000 C   0  0  0  0  0  0  0  0  0  0  0  0
    1.5000   -2.5981    0.0000 C   0  0  0  0  0  0  0  0  0  0  0  0
    2.2500   -3.8971    0.0000 C   0  0  0  0  0  0  0  0  0  0  0  0
    3.7500   -3.8971    0.0000 C   0  0  0  0  0  0  0  0  0  0  0  0
    4.5000   -2.5981    0.0000 C   0  0  0  0  0  0  0  0  0  0  0  0
    3.7500   -1.2990    0.0000 C   0  0  0  0  0  0  0  0  0  0  0  0
    2.2500   -1.2990    0.0000 C   0  0  0  0  0  0  0  0  0  0  0  0
    0.0000   -5.1962    0.0000 C   0  0  0  0  0  0  0  0  0  0  0  0
    1.4554   -5.5591    0.0000 O   0  0  0  0  0  0  0  0  0  0  0  0
   -0.9028   -6.3941    0.0000 O   0  0  0  0  0  0  0  0  0  0  0  0
  1  2  2  0
  2  3  1  0
  3  4  1  0
  4  5  1  0
  5  6  1  0
  6  7  2  0
  7  8  1  0
  8  9  2  0
  9 10  1  0
 10 11  2  0
  4 12  1  0
 12 13  2  0
 12 14  1  0
 14 15  1  0
 15 16  1  0
 16 17  1  0
 17 18  1  0
 18 19  1  0
 18 20  1  0
 20 21  1  0
 21 22  2  0
 21 23  1  0
 23 24  1  0
 24 25  1  0
 25 26  1  0
 26 27  2  0
 27 28  1  0
 28 29  2  0
 29 30  1  0
 30 31  2  0
 24 32  1  0
 32 33  2  0
 32 34  1  0
 34 35  1  0
 35 36  1  0
 36 37  1  0
 37 38  2  0
 38 39  1  0
 39 40  2  0
 40 41  1  0
 41 42  2  0
 35 43  1  0
 43 44  2  0
 43 45  1  0
  2 46  1  0
 46 47  1  0
 47 48  1  0
 48 49  1  0
 49 50  1  0
 50 51  1  0
 50 52  1  0
 52 53  1  0
 53 54  2  0
 53 55  1  0
 55 56  1  0
 56 57  1  0
 57 58  1  0
 58 59  2  0
 59 60  1  0
 60 61  2  0
 61 62  1  0
 62 63  2  0
 56 64  1  0
 64 65  2  0
 64 66  1  0
 11  6  1  0
 19 14  1  0
 31 26  1  0
 42 37  1  0
 51 46  1  0
 63 58  1  0
 20 16  1  0
 52 48  1  0
M  END
>  <Title>  (83) 
idAAJSgen6

$$$$

     RDKit          2D

 57 62  0  0  0  0  0  0  0  0999 V2000
    6.7500   -3.8971    0.0000 N   0  0  0  0  0  0  0  0  0  0  0  0
    5.2500   -3.8971    0.0000 C   0  0  0  0  0  0  0  0  0  0  0  0
    4.5000   -2.5981    0.0000 O   0  0  0  0  0  0  0  0  0  0  0  0
    4.5000   -5.1962    0.0000 C   0  0  0  0  0  0  0  0  0  0  0  0
    5.2500   -6.4952    0.0000 C   0  0  0  0  0  0  0  0  0  0  0  0
    6.7500   -6.4952    0.0000 C   0  0  0  0  0  0  0  0  0  0  0  0
    7.5000   -7.7942    0.0000 C   0  0  0  0  0  0  0  0  0  0  0  0
    9.0000   -7.7942    0.0000 C   0  0  0  0  0  0  0  0  0  0  0  0
    9.7500   -6.4952    0.0000 C   0  0  0  0  0  0  0  0  0  0  0  0
    9.0000   -5.1962    0.0000 C   0  0  0  0  0  0  0  0  0  0  0  0
    7.5000   -5.1962    0.0000 C   0  0  0  0  0  0  0  0  0  0  0  0
    3.0000   -5.1962    0.0000 N   0  0  0  0  0  0  0  0  0  0  0  0
    2.2500   -3.8971    0.0000 C   0  0  0  0  0  0  0  0  0  0  0  0
    3.0000   -2.5981    0.0000 O   0  0  0  0  0  0  0  0  0  0  0  0
    0.7500   -3.8971    0.0000 C   0  0  0  0  0  0  0  0  0  0  0  0
   -0.0000   -5.1962    0.0000 C   0  0  0  0  0  0  0  0  0  0  0  0
    0.7500   -6.4952    0.0000 C   0  0  0  0  0  0  0  0  0  0  0  0
   -0.0000   -7.7942    0.0000 C   0  0  0  0  0  0  0  0  0  0  0  0
    0.7500   -9.0933    0.0000 C   0  0  0  0  0  0  0  0  0  0  0  0
    2.2500   -9.0933    0.0000 C   0  0  0  0  0  0  0  0  0  0  0  0
    3.0000   -7.7942    0.0000 C   0  0  0  0  0  0  0  0  0  0  0  0
    2.2500   -6.4952    0.0000 C   0  0  0  0  0  0  0  0  0  0  0  0
   -0.0000   -2.5981    0.0000 N   0  0  0  0  0  0  0  0  0  0  0  0
    0.7500   -1.2990    0.0000 C   0  0  0  0  0  0  0  0  0  0  0  0
    2.2500   -1.2990    0.0000 O   0  0  0  0  0  0  0  0  0  0  0  0
   -0.0000    0.0000    0.0000 C   0  0  0  0  0  0  0  0  0  0  0  0
   -1.5000    0.0000    0.0000 C   0  0  0  0  0  0  0  0  0  0  0  0
   -0.7500   -1.2990    0.0000 C   0  0  0  0  0  0  0  0  0  0  0  0
    0.7500   -1.2990    0.0000 C   0  0  0  0  0  0  0  0  0  0  0  0
    1.5000   -2.5981    0.0000 N   0  0  0  0  0  0  0  0  0  0  0  0
    0.7500   -3.8971    0.0000 C   0  0  0  0  0  0  0  0  0  0  0  0
   -0.7500   -3.8971    0.0000 O   0  0  0  0  0  0  0  0  0  0  0  0
    1.5000   -5.1962    0.0000 C   0  0  0  0  0  0  0  0  0  0  0  0
    0.7500   -6.4952    0.0000 C   0  0  0  0  0  0  0  0  0  0  0  0
    1.5000   -7.7942    0.0000 C   0  0  0  0  0  0  0  0  0  0  0  0
    0.7500   -9.0933    0.0000 C   0  0  0  0  0  0  0  0  0  0  0  0
    1.5000  -10.3923    0.0000 C   0  0  0  0  0  0  0  0  0  0  0  0
    3.0000  -10.3923    0.0000 C   0  0  0  0  0  0  0  0  0  0  0  0
    3.7500   -9.0933    0.0000 C   0  0  0  0  0  0  0  0  0  0  0  0
    3.0000   -7.7942    0.0000 C   0  0  0  0  0  0  0  0  0  0  0  0
    3.0000   -5.1962    0.0000 C   0  0  0  0  0  0  0  0  0  0  0  0
    3.7500   -3.8971    0.0000 O   0  0  0  0  0  0  0  0  0  0  0  0
    3.7500   -6.4952    0.0000 N   0  0  0  0  0  0  0  0  0  0  0  0
    5.2500   -6.4952    0.0000 C   0  0  0  0  0  0  0  0  0  0  0  0
    6.0000   -7.7942    0.0000 C   0  0  0  0  0  0  0  0  0  0  0  0
    7.5000   -7.7942    0.0000 C   0  0  0  0  0  0  0  0  0  0  0  0
    8.2500   -9.0933    0.0000 C   0  0  0  0  0  0  0  0  0  0  0  0
    9.7500   -9.0933    0.0000 C   0  0  0  0  0  0  0  0  0  0  0  0
   10.5000   -7.7942    0.0000 C   0  0  0  0  0  0  0  0  0  0  0  0
    9.7500   -6.4952    0.0000 C   0  0  0  0  0  0  0  0  0  0  0  0
    8.2500   -6.4952    0.0000 C   0  0  0  0  0  0  0  0  0  0  0  0
    6.0000   -5.1962    0.0000 C   0  0  0  0  0  0  0  0  0  0  0  0
    5.5866   -3.7542    0.0000 O   0  0  0  0  0  0  0  0  0  0  0  0
    7.4554   -4.8332    0.0000 O   0  0  0  0  0  0  0  0  0  0  0  0
    1.5000    0.0000    0.0000 C   0  0  0  0  0  0  0  0  0  0  0  0
    0.7500    1.2990    0.0000 C   0  0  0  0  0  0  0  0  0  0  0  0
   -0.7500    1.2990    0.0000 C   0  0  0  0  0  0  0  0  0  0  0  0
  1  2  1  0
  2  3  2  0
  2  4  1  0
  4  5  1  0
  5  6  1  0
  6  7  2  0
  7  8  1  0
  8  9  2  0
  9 10  1  0
 10 11  2  0
  4 12  1  0
 12 13  1  0
 13 14  2  0
 13 15  1  0
 15 16  1  0
 16 17  1  0
 17 18  2  0
 18 19  1  0
 19 20  2  0
 20 21  1  0
 21 22  2  0
 15 23  1  0
 23 24  1  0
 24 25  2  0
 24 26  1  0
 26 27  1  0
 27 28  1  0
 28 29  1  0
 29 30  1  0
 30 31  1  0
 31 32  2  0
 31 33  1  0
 33 34  1  0
 34 35  1  0
 35 36  2  0
 36 37  1  0
 37 38  2  0
 38 39  1  0
 39 40  2  0
 33 41  1  0
 41 42  2  0
 41 43  1  0
 43 44  1  0
 44 45  1  0
 45 46  1  0
 46 47  2  0
 47 48  1  0
 48 49  2  0
 49 50  1  0
 50 51  2  0
 44 52  1  0
 52 53  2  0
 52 54  1  0
 29 55  1  0
 55 56  1  0
 56 57  1  0
 11  6  1  0
 22 17  1  0
 56 26  1  0
 57 27  1  0
 40 35  1  0
 51 46  1  0
M  END
>  <Title>  (84) 
idAAJTgen6

$$$$

     RDKit          2D

 52 56  0  0  0  0  0  0  0  0999 V2000
   -6.5278    4.5069    0.0000 C   0  0  0  0  0  0  0  0  0  0  0  0
   -6.4306    3.0101    0.0000 C   0  0  0  0  0  0  0  0  0  0  0  0
   -6.5165    1.5125    0.0000 C   0  0  0  0  0  0  0  0  0  0  0  0
   -7.9065    3.2779    0.0000 C   0  0  0  0  0  0  0  0  0  0  0  0
   -4.9547    2.7422    0.0000 N   0  0  0  0  0  0  0  0  0  0  0  0
   -4.4487    1.3301    0.0000 C   0  0  0  0  0  0  0  0  0  0  0  0
   -5.4186    0.1859    0.0000 O   0  0  0  0  0  0  0  0  0  0  0  0
   -2.9728    1.0623    0.0000 C   0  0  0  0  0  0  0  0  0  0  0  0
   -2.0911    2.2758    0.0000 C   0  0  0  0  0  0  0  0  0  0  0  0
   -0.5926    2.3431    0.0000 C   0  0  0  0  0  0  0  0  0  0  0  0
    0.3943    1.2135    0.0000 N   0  0  0  0  0  0  0  0  0  0  0  0
    1.2760    0.0000    0.0000 C   0  0  0  0  0  0  0  0  0  0  0  0
    0.3943   -1.2135    0.0000 C   0  0  0  0  0  0  0  0  0  0  0  0
   -1.0323   -0.7500    0.0000 C   0  0  0  0  0  0  0  0  0  0  0  0
   -2.5737   -0.3836    0.0000 C   0  0  0  0  0  0  0  0  0  0  0  0
   -1.0323    0.7500    0.0000 C   0  0  0  0  0  0  0  0  0  0  0  0
   -2.2458    1.6317    0.0000 C   0  0  0  0  0  0  0  0  0  0  0  0
   -3.7230    1.3713    0.0000 O   0  0  0  0  0  0  0  0  0  0  0  0
   -2.0890    3.1235    0.0000 N   0  0  0  0  0  0  0  0  0  0  0  0
   -3.3025    4.0051    0.0000 C   0  0  0  0  0  0  0  0  0  0  0  0
   -3.1458    5.4969    0.0000 C   0  0  0  0  0  0  0  0  0  0  0  0
   -4.3593    6.3786    0.0000 C   0  0  0  0  0  0  0  0  0  0  0  0
   -4.2025    7.8704    0.0000 C   0  0  0  0  0  0  0  0  0  0  0  0
   -5.4160    8.7521    0.0000 C   0  0  0  0  0  0  0  0  0  0  0  0
   -6.7863    8.1420    0.0000 C   0  0  0  0  0  0  0  0  0  0  0  0
   -6.9431    6.6502    0.0000 C   0  0  0  0  0  0  0  0  0  0  0  0
   -5.7296    5.7685    0.0000 C   0  0  0  0  0  0  0  0  0  0  0  0
   -4.6729    3.3950    0.0000 C   0  0  0  0  0  0  0  0  0  0  0  0
   -5.5118    2.1516    0.0000 O   0  0  0  0  0  0  0  0  0  0  0  0
   -5.8864    4.2767    0.0000 N   0  0  0  0  0  0  0  0  0  0  0  0
   -7.2567    3.6666    0.0000 C   0  0  0  0  0  0  0  0  0  0  0  0
   -8.4702    4.5483    0.0000 C   0  0  0  0  0  0  0  0  0  0  0  0
   -9.8406    3.9382    0.0000 C   0  0  0  0  0  0  0  0  0  0  0  0
  -11.0541    4.8199    0.0000 C   0  0  0  0  0  0  0  0  0  0  0  0
  -12.4244    4.2098    0.0000 C   0  0  0  0  0  0  0  0  0  0  0  0
  -12.5812    2.7180    0.0000 C   0  0  0  0  0  0  0  0  0  0  0  0
  -11.3677    1.8363    0.0000 C   0  0  0  0  0  0  0  0  0  0  0  0
   -9.9973    2.4464    0.0000 C   0  0  0  0  0  0  0  0  0  0  0  0
   -7.4135    2.1748    0.0000 C   0  0  0  0  0  0  0  0  0  0  0  0
   -6.3165    1.1518    0.0000 O   0  0  0  0  0  0  0  0  0  0  0  0
   -8.7838    1.5647    0.0000 N   0  0  0  0  0  0  0  0  0  0  0  0
   -8.9406    0.0729    0.0000 C   0  0  0  0  0  0  0  0  0  0  0  0
  -10.3109   -0.5372    0.0000 C   0  0  0  0  0  0  0  0  0  0  0  0
  -10.4677   -2.0290    0.0000 C   0  0  0  0  0  0  0  0  0  0  0  0
  -11.8380   -2.6391    0.0000 C   0  0  0  0  0  0  0  0  0  0  0  0
  -11.9948   -4.1308    0.0000 C   0  0  0  0  0  0  0  0  0  0  0  0
  -10.7813   -5.0125    0.0000 C   0  0  0  0  0  0  0  0  0  0  0  0
   -9.4110   -4.4024    0.0000 C   0  0  0  0  0  0  0  0  0  0  0  0
   -9.2542   -2.9106    0.0000 C   0  0  0  0  0  0  0  0  0  0  0  0
   -7.7271   -0.8087    0.0000 C   0  0  0  0  0  0  0  0  0  0  0  0
   -6.3568   -0.1986    0.0000 O   0  0  0  0  0  0  0  0  0  0  0  0
   -7.8839   -2.3005    0.0000 O   0  0  0  0  0  0  0  0  0  0  0  0
  1  2  1  0
  2  3  1  0
  2  4  1  0
  2  5  1  0
  5  6  1  0
  6  7  2  0
  6  8  1  0
  8  9  1  0
  9 10  1  0
 10 11  1  0
 11 12  1  0
 12 13  1  0
 13 14  1  0
 14 15  1  0
 14 16  1  0
 16 17  1  0
 17 18  2  0
 17 19  1  0
 19 20  1  0
 20 21  1  0
 21 22  1  0
 22 23  2  0
 23 24  1  0
 24 25  2  0
 25 26  1  0
 26 27  2  0
 20 28  1  0
 28 29  2  0
 28 30  1  0
 30 31  1  0
 31 32  1  0
 32 33  1  0
 33 34  2  0
 34 35  1  0
 35 36  2  0
 36 37  1  0
 37 38  2  0
 31 39  1  0
 39 40  2  0
 39 41  1  0
 41 42  1  0
 42 43  1  0
 43 44  1  0
 44 45  2  0
 45 46  1  0
 46 47  2  0
 47 48  1  0
 48 49  2  0
 42 50  1  0
 50 51  2  0
 50 52  1  0
 15  8  1  0
 27 22  1  0
 38 33  1  0
 49 44  1  0
 16 11  1  0
M  END
>  <Title>  (85) 
idAAJUgen6

$$$$

     RDKit          2D

 30 34  0  0  0  0  0  0  0  0999 V2000
    5.1102   -5.2419    0.0000 C   0  0  0  0  0  0  0  0  0  0  0  0
    3.9955   -4.2382    0.0000 C   0  0  0  0  0  0  0  0  0  0  0  0
    2.8808   -3.2345    0.0000 C   0  0  0  0  0  0  0  0  0  0  0  0
    4.9992   -3.1235    0.0000 C   0  0  0  0  0  0  0  0  0  0  0  0
    2.9918   -5.3529    0.0000 C   0  0  0  0  0  0  0  0  0  0  0  0
    3.3037   -6.8202    0.0000 C   0  0  0  0  0  0  0  0  0  0  0  0
    2.0046   -7.5702    0.0000 C   0  0  0  0  0  0  0  0  0  0  0  0
    3.2181   -8.4518    0.0000 C   0  0  0  0  0  0  0  0  0  0  0  0
    2.3365   -9.6654    0.0000 C   0  0  0  0  0  0  0  0  0  0  0  0
    4.0998   -7.2383    0.0000 C   0  0  0  0  0  0  0  0  0  0  0  0
    4.4317   -9.3335    0.0000 C   0  0  0  0  0  0  0  0  0  0  0  0
    1.6927   -9.0374    0.0000 C   0  0  0  0  0  0  0  0  0  0  0  0
    0.2662   -9.5009    0.0000 C   0  0  0  0  0  0  0  0  0  0  0  0
   -0.8486   -8.4972    0.0000 C   0  0  0  0  0  0  0  0  0  0  0  0
   -0.5367   -7.0300    0.0000 C   0  0  0  0  0  0  0  0  0  0  0  0
    0.8899   -6.5665    0.0000 C   0  0  0  0  0  0  0  0  0  0  0  0
   -0.1138   -5.4518    0.0000 C   0  0  0  0  0  0  0  0  0  0  0  0
    1.5000   -5.1962    0.0000 C   0  0  0  0  0  0  0  0  0  0  0  0
    0.7500   -3.8971    0.0000 C   0  0  0  0  0  0  0  0  0  0  0  0
    1.5000   -2.5981    0.0000 C   0  0  0  0  0  0  0  0  0  0  0  0
    0.7500   -1.2990    0.0000 C   0  0  0  0  0  0  0  0  0  0  0  0
    1.5000    0.0000    0.0000 C   0  0  0  0  0  0  0  0  0  0  0  0
    0.7500    1.2990    0.0000 C   0  0  0  0  0  0  0  0  0  0  0  0
   -0.7500    1.2990    0.0000 C   0  0  0  0  0  0  0  0  0  0  0  0
   -1.5000    0.0000    0.0000 C   0  0  0  0  0  0  0  0  0  0  0  0
    1.7010   -0.7500    0.0000 C   0  0  0  0  0  0  0  0  0  0  0  0
    3.0000   -0.0000    0.0000 C   0  0  0  0  0  0  0  0  0  0  0  0
    2.2500    1.2990    0.0000 C   0  0  0  0  0  0  0  0  0  0  0  0
    2.2500   -1.2990    0.0000 C   0  0  0  0  0  0  0  0  0  0  0  0
   -0.7500   -1.2990    0.0000 C   0  0  0  0  0  0  0  0  0  0  0  0
  1  2  1  0
  2  3  1  0
  2  4  1  0
  2  5  1  0
  5  6  1  0
  6  7  1  0
  7  8  1  0
  8  9  1  0
  8 10  1  0
  8 11  1  0
  7 12  1  0
 12 13  1  0
 13 14  1  0
 14 15  1  0
 15 16  1  0
 16 17  1  0
 16 18  1  0
 18 19  1  0
 19 20  1  0
 20 21  1  0
 21 22  1  0
 22 23  1  0
 23 24  1  0
 24 25  1  0
 25 26  1  0
 26 27  1  0
 27 28  1  0
 27 29  1  0
 25 30  1  0
 18  5  1  0
 29 21  1  0
 16  7  1  0
 30 21  1  0
 28 23  1  0
M  END
>  <Title>  (86) 
idAAJVgen6

$$$$

     RDKit          2D

 41 45  0  0  0  0  0  0  0  0999 V2000
   -4.7734    1.7567    0.0000 O   0  0  0  0  0  0  0  0  0  0  0  0
   -3.4031    2.3668    0.0000 C   0  0  0  0  0  0  0  0  0  0  0  0
   -3.2463    3.8586    0.0000 N   0  0  0  0  0  0  0  0  0  0  0  0
   -4.4598    4.7402    0.0000 C   0  0  0  0  0  0  0  0  0  0  0  0
   -4.3030    6.2320    0.0000 C   0  0  0  0  0  0  0  0  0  0  0  0
   -5.5165    7.1137    0.0000 C   0  0  0  0  0  0  0  0  0  0  0  0
   -5.3597    8.6055    0.0000 C   0  0  0  0  0  0  0  0  0  0  0  0
   -6.5733    9.4872    0.0000 C   0  0  0  0  0  0  0  0  0  0  0  0
   -7.9436    8.8771    0.0000 C   0  0  0  0  0  0  0  0  0  0  0  0
   -8.1004    7.3853    0.0000 C   0  0  0  0  0  0  0  0  0  0  0  0
   -6.8869    6.5036    0.0000 C   0  0  0  0  0  0  0  0  0  0  0  0
   -5.8301    4.1301    0.0000 C   0  0  0  0  0  0  0  0  0  0  0  0
   -5.9869    2.6383    0.0000 O   0  0  0  0  0  0  0  0  0  0  0  0
   -7.0436    5.0118    0.0000 N   0  0  0  0  0  0  0  0  0  0  0  0
   -8.4140    4.4017    0.0000 C   0  0  0  0  0  0  0  0  0  0  0  0
   -9.6275    5.2834    0.0000 C   0  0  0  0  0  0  0  0  0  0  0  0
  -10.9978    4.6733    0.0000 C   0  0  0  0  0  0  0  0  0  0  0  0
  -12.2113    5.5550    0.0000 C   0  0  0  0  0  0  0  0  0  0  0  0
  -13.5817    4.9449    0.0000 C   0  0  0  0  0  0  0  0  0  0  0  0
  -13.7384    3.4531    0.0000 C   0  0  0  0  0  0  0  0  0  0  0  0
  -12.5249    2.5714    0.0000 C   0  0  0  0  0  0  0  0  0  0  0  0
  -11.1546    3.1815    0.0000 C   0  0  0  0  0  0  0  0  0  0  0  0
   -8.5708    2.9099    0.0000 C   0  0  0  0  0  0  0  0  0  0  0  0
   -7.3572    2.0282    0.0000 O   0  0  0  0  0  0  0  0  0  0  0  0
   -9.9411    2.2998    0.0000 O   0  0  0  0  0  0  0  0  0  0  0  0
   -2.1895    1.4851    0.0000 C   0  0  0  0  0  0  0  0  0  0  0  0
   -0.8192    2.0952    0.0000 C   0  0  0  0  0  0  0  0  0  0  0  0
    0.3943    1.2135    0.0000 C   0  0  0  0  0  0  0  0  0  0  0  0
    1.2760    0.0000    0.0000 C   0  0  0  0  0  0  0  0  0  0  0  0
    0.3943   -1.2135    0.0000 C   0  0  0  0  0  0  0  0  0  0  0  0
   -1.0323   -0.7500    0.0000 C   0  0  0  0  0  0  0  0  0  0  0  0
   -2.3463   -0.0067    0.0000 C   0  0  0  0  0  0  0  0  0  0  0  0
   -1.0323    0.7500    0.0000 N   0  0  0  0  0  0  0  0  0  0  0  0
   -2.2458    1.6317    0.0000 C   0  0  0  0  0  0  0  0  0  0  0  0
   -2.0890    3.1235    0.0000 C   0  0  0  0  0  0  0  0  0  0  0  0
   -3.3025    4.0051    0.0000 C   0  0  0  0  0  0  0  0  0  0  0  0
   -3.1458    5.4969    0.0000 C   0  0  0  0  0  0  0  0  0  0  0  0
   -4.3593    6.3786    0.0000 C   0  0  0  0  0  0  0  0  0  0  0  0
   -5.7296    5.7685    0.0000 C   0  0  0  0  0  0  0  0  0  0  0  0
   -5.8864    4.2767    0.0000 C   0  0  0  0  0  0  0  0  0  0  0  0
   -4.6729    3.3950    0.0000 C   0  0  0  0  0  0  0  0  0  0  0  0
  1  2  2  0
  2  3  1  0
  3  4  1  0
  4  5  1  0
  5  6  1  0
  6  7  2  0
  7  8  1  0
  8  9  2  0
  9 10  1  0
 10 11  2  0
  4 12  1  0
 12 13  2  0
 12 14  1  0
 14 15  1  0
 15 16  1  0
 16 17  1  0
 17 18  2  0
 18 19  1  0
 19 20  2  0
 20 21  1  0
 21 22  2  0
 15 23  1  0
 23 24  2  0
 23 25  1  0
  2 26  1  0
 26 27  1  0
 27 28  1  0
 28 29  1  0
 29 30  1  0
 30 31  1  0
 31 32  1  0
 31 33  1  0
 33 34  1  0
 34 35  1  0
 35 36  1  0
 36 37  2  0
 37 38  1  0
 38 39  2  0
 39 40  1  0
 40 41  2  0
 11  6  1  0
 22 17  1  0
 32 26  1  0
 41 36  1  0
 33 28  1  0
M  END
>  <Title>  (87) 
idAAJWgen6

$$$$

     RDKit          2D

 32 35  0  0  0  0  0  0  0  0999 V2000
   -6.6631    4.6747    0.0000 C   0  0  0  0  0  0  0  0  0  0  0  0
   -7.2111    3.2784    0.0000 C   0  0  0  0  0  0  0  0  0  0  0  0
   -5.7279    3.0548    0.0000 C   0  0  0  0  0  0  0  0  0  0  0  0
   -8.4505    4.1234    0.0000 C   0  0  0  0  0  0  0  0  0  0  0  0
   -9.8838    3.6812    0.0000 C   0  0  0  0  0  0  0  0  0  0  0  0
  -10.4318    2.2849    0.0000 C   0  0  0  0  0  0  0  0  0  0  0  0
   -9.6818    0.9859    0.0000 C   0  0  0  0  0  0  0  0  0  0  0  0
   -8.1986    0.7623    0.0000 C   0  0  0  0  0  0  0  0  0  0  0  0
   -7.0990    1.7826    0.0000 C   0  0  0  0  0  0  0  0  0  0  0  0
   -5.7027    1.2346    0.0000 C   0  0  0  0  0  0  0  0  0  0  0  0
   -5.4791   -0.2487    0.0000 C   0  0  0  0  0  0  0  0  0  0  0  0
   -4.0828   -0.7967    0.0000 C   0  0  0  0  0  0  0  0  0  0  0  0
   -3.9707   -2.2925    0.0000 C   0  0  0  0  0  0  0  0  0  0  0  0
   -2.7314   -3.1375    0.0000 C   0  0  0  0  0  0  0  0  0  0  0  0
   -1.2980   -2.6953    0.0000 C   0  0  0  0  0  0  0  0  0  0  0  0
   -0.7500   -1.2990    0.0000 C   0  0  0  0  0  0  0  0  0  0  0  0
    0.0950   -2.5384    0.0000 C   0  0  0  0  0  0  0  0  0  0  0  0
    0.7500   -1.2990    0.0000 C   0  0  0  0  0  0  0  0  0  0  0  0
    1.5000   -2.5981    0.0000 C   0  0  0  0  0  0  0  0  0  0  0  0
    3.0000   -2.5981    0.0000 C   0  0  0  0  0  0  0  0  0  0  0  0
    3.7500   -3.8971    0.0000 C   0  0  0  0  0  0  0  0  0  0  0  0
    5.2418   -4.0539    0.0000 C   0  0  0  0  0  0  0  0  0  0  0  0
    5.5537   -5.5211    0.0000 C   0  0  0  0  0  0  0  0  0  0  0  0
    4.2546   -6.2711    0.0000 C   0  0  0  0  0  0  0  0  0  0  0  0
    3.1399   -5.2674    0.0000 C   0  0  0  0  0  0  0  0  0  0  0  0
    1.5000    0.0000    0.0000 C   0  0  0  0  0  0  0  0  0  0  0  0
    0.7500    1.2990    0.0000 C   0  0  0  0  0  0  0  0  0  0  0  0
   -0.7500    1.2990    0.0000 C   0  0  0  0  0  0  0  0  0  0  0  0
   -1.5000    0.0000    0.0000 C   0  0  0  0  0  0  0  0  0  0  0  0
   -2.9832    0.2236    0.0000 C   0  0  0  0  0  0  0  0  0  0  0  0
   -2.4352    1.6199    0.0000 C   0  0  0  0  0  0  0  0  0  0  0  0
   -4.2226    1.0685    0.0000 C   0  0  0  0  0  0  0  0  0  0  0  0
  1  2  1  0
  2  3  1  0
  2  4  1  0
  4  5  1  0
  5  6  1  0
  6  7  1  0
  7  8  1  0
  8  9  1  0
  9 10  1  0
 10 11  1  0
 11 12  1  0
 12 13  1  0
 13 14  1  0
 14 15  1  0
 15 16  1  0
 16 17  1  0
 16 18  1  0
 18 19  1  0
 19 20  1  0
 20 21  1  0
 21 22  1  0
 22 23  1  0
 23 24  1  0
 24 25  1  0
 18 26  1  0
 26 27  1  0
 27 28  1  0
 28 29  1  0
 29 30  1  0
 30 31  1  0
 30 32  1  0
  9  2  1  0
 30 12  1  0
 29 16  1  0
 25 21  1  0
M  END
>  <Title>  (88) 
idAAJXgen6

$$$$

     RDKit          2D

 51 57  0  0  0  0  0  0  0  0999 V2000
   -1.9605    4.6312    0.0000 O   0  0  0  0  0  0  0  0  0  0  0  0
   -3.2463    3.8586    0.0000 C   0  0  0  0  0  0  0  0  0  0  0  0
   -3.4031    2.3668    0.0000 N   0  0  0  0  0  0  0  0  0  0  0  0
   -2.1895    1.4851    0.0000 C   0  0  0  0  0  0  0  0  0  0  0  0
   -0.8192    2.0952    0.0000 C   0  0  0  0  0  0  0  0  0  0  0  0
    0.3943    1.2135    0.0000 C   0  0  0  0  0  0  0  0  0  0  0  0
    1.2760    0.0000    0.0000 C   0  0  0  0  0  0  0  0  0  0  0  0
    0.3943   -1.2135    0.0000 C   0  0  0  0  0  0  0  0  0  0  0  0
   -1.0323   -0.7500    0.0000 C   0  0  0  0  0  0  0  0  0  0  0  0
   -2.3463   -0.0067    0.0000 C   0  0  0  0  0  0  0  0  0  0  0  0
   -1.0323    0.7500    0.0000 N   0  0  0  0  0  0  0  0  0  0  0  0
   -2.2458    1.6317    0.0000 C   0  0  0  0  0  0  0  0  0  0  0  0
   -2.0890    3.1235    0.0000 C   0  0  0  0  0  0  0  0  0  0  0  0
   -3.3025    4.0051    0.0000 C   0  0  0  0  0  0  0  0  0  0  0  0
   -3.1458    5.4969    0.0000 C   0  0  0  0  0  0  0  0  0  0  0  0
   -4.3593    6.3786    0.0000 C   0  0  0  0  0  0  0  0  0  0  0  0
   -5.7296    5.7685    0.0000 C   0  0  0  0  0  0  0  0  0  0  0  0
   -5.8864    4.2767    0.0000 C   0  0  0  0  0  0  0  0  0  0  0  0
   -4.6729    3.3950    0.0000 C   0  0  0  0  0  0  0  0  0  0  0  0
   -4.4598    4.7402    0.0000 C   0  0  0  0  0  0  0  0  0  0  0  0
   -4.3030    6.2320    0.0000 C   0  0  0  0  0  0  0  0  0  0  0  0
   -5.5165    7.1137    0.0000 C   0  0  0  0  0  0  0  0  0  0  0  0
   -6.8869    6.5036    0.0000 C   0  0  0  0  0  0  0  0  0  0  0  0
   -7.0436    5.0118    0.0000 C   0  0  0  0  0  0  0  0  0  0  0  0
   -5.8301    4.1301    0.0000 C   0  0  0  0  0  0  0  0  0  0  0  0
   -5.6733    5.6219    0.0000 C   0  0  0  0  0  0  0  0  0  0  0  0
   -4.4598    4.7402    0.0000 C   0  0  0  0  0  0  0  0  0  0  0  0
   -3.2778    5.6638    0.0000 O   0  0  0  0  0  0  0  0  0  0  0  0
   -4.6166    3.2485    0.0000 N   0  0  0  0  0  0  0  0  0  0  0  0
   -3.4031    2.3668    0.0000 C   0  0  0  0  0  0  0  0  0  0  0  0
   -3.5599    0.8750    0.0000 C   0  0  0  0  0  0  0  0  0  0  0  0
   -2.3463   -0.0067    0.0000 C   0  0  0  0  0  0  0  0  0  0  0  0
   -2.5031   -1.4985    0.0000 C   0  0  0  0  0  0  0  0  0  0  0  0
   -1.2896   -2.3801    0.0000 C   0  0  0  0  0  0  0  0  0  0  0  0
    0.0807   -1.7700    0.0000 C   0  0  0  0  0  0  0  0  0  0  0  0
    0.2375   -0.2783    0.0000 C   0  0  0  0  0  0  0  0  0  0  0  0
   -0.9760    0.6034    0.0000 C   0  0  0  0  0  0  0  0  0  0  0  0
   -2.0328    2.9769    0.0000 C   0  0  0  0  0  0  0  0  0  0  0  0
   -1.6953    4.4384    0.0000 O   0  0  0  0  0  0  0  0  0  0  0  0
   -0.8192    2.0952    0.0000 N   0  0  0  0  0  0  0  0  0  0  0  0
    0.5511    2.7053    0.0000 C   0  0  0  0  0  0  0  0  0  0  0  0
    1.7646    1.8236    0.0000 C   0  0  0  0  0  0  0  0  0  0  0  0
    3.1349    2.4337    0.0000 C   0  0  0  0  0  0  0  0  0  0  0  0
    4.3485    1.5521    0.0000 C   0  0  0  0  0  0  0  0  0  0  0  0
    5.7188    2.1622    0.0000 C   0  0  0  0  0  0  0  0  0  0  0  0
    5.8756    3.6539    0.0000 C   0  0  0  0  0  0  0  0  0  0  0  0
    4.6620    4.5356    0.0000 C   0  0  0  0  0  0  0  0  0  0  0  0
    3.2917    3.9255    0.0000 C   0  0  0  0  0  0  0  0  0  0  0  0
    0.7079    4.1971    0.0000 C   0  0  0  0  0  0  0  0  0  0  0  0
   -0.5056    5.0788    0.0000 O   0  0  0  0  0  0  0  0  0  0  0  0
    2.0782    4.8072    0.0000 O   0  0  0  0  0  0  0  0  0  0  0  0
  1  2  2  0
  2  3  1  0
  3  4  1  0
  4  5  1  0
  5  6  1  0
  6  7  1  0
  7  8  1  0
  8  9  1  0
  9 10  1  0
  9 11  1  0
 11 12  1  0
 12 13  1  0
 13 14  1  0
 14 15  2  0
 15 16  1  0
 16 17  2  0
 17 18  1  0
 18 19  2  0
  2 20  1  0
 20 21  1  0
 21 22  1  0
 22 23  1  0
 23 24  1  0
 24 25  1  0
 24 26  1  0
 26 27  1  0
 27 28  2  0
 27 29  1  0
 29 30  1  0
 30 31  1  0
 31 32  1  0
 32 33  2  0
 33 34  1  0
 34 35  2  0
 35 36  1  0
 36 37  2  0
 30 38  1  0
 38 39  2  0
 38 40  1  0
 40 41  1  0
 41 42  1  0
 42 43  1  0
 43 44  2  0
 44 45  1  0
 45 46  2  0
 46 47  1  0
 47 48  2  0
 41 49  1  0
 49 50  2  0
 49 51  1  0
 10  4  1  0
 19 14  1  0
 25 20  1  0
 37 32  1  0
 48 43  1  0
 11  6  1  0
 26 22  1  0
M  END
>  <Title>  (89) 
idAAJYgen6

$$$$

     RDKit          2D

 20 22  0  0  0  0  0  0  0  0999 V2000
    2.6491    0.9642    0.0000 C   0  0  0  0  0  0  0  0  0  0  0  0
    1.5000    0.0000    0.0000 C   0  0  0  0  0  0  0  0  0  0  0  0
    2.6491   -0.9642    0.0000 C   0  0  0  0  0  0  0  0  0  0  0  0
    0.7500   -1.2990    0.0000 O   0  0  0  0  0  0  0  0  0  0  0  0
   -0.7500   -1.2990    0.0000 C   0  0  0  0  0  0  0  0  0  0  0  0
   -1.5000    0.0000    0.0000 C   0  0  0  0  0  0  0  0  0  0  0  0
   -0.7500    1.2990    0.0000 C   0  0  0  0  0  0  0  0  0  0  0  0
   -2.2500    1.2990    0.0000 C   0  0  0  0  0  0  0  0  0  0  0  0
   -1.5000    2.5981    0.0000 C   0  0  0  0  0  0  0  0  0  0  0  0
   -3.0000    2.5981    0.0000 C   0  0  0  0  0  0  0  0  0  0  0  0
   -3.7500    3.8971    0.0000 C   0  0  0  0  0  0  0  0  0  0  0  0
   -5.2500    3.8971    0.0000 C   0  0  0  0  0  0  0  0  0  0  0  0
   -6.1317    2.6836    0.0000 C   0  0  0  0  0  0  0  0  0  0  0  0
   -7.5583    3.1471    0.0000 C   0  0  0  0  0  0  0  0  0  0  0  0
   -7.5583    4.6471    0.0000 C   0  0  0  0  0  0  0  0  0  0  0  0
   -6.1317    5.1106    0.0000 C   0  0  0  0  0  0  0  0  0  0  0  0
   -0.7500    3.8971    0.0000 C   0  0  0  0  0  0  0  0  0  0  0  0
    0.7500    3.8971    0.0000 C   0  0  0  0  0  0  0  0  0  0  0  0
    1.5000    2.5981    0.0000 C   0  0  0  0  0  0  0  0  0  0  0  0
    0.7500    1.2990    0.0000 C   0  0  0  0  0  0  0  0  0  0  0  0
  1  2  1  0
  2  3  1  0
  2  4  1  0
  4  5  1  0
  5  6  1  0
  6  7  1  0
  7  8  1  0
  7  9  1  0
  9 10  1  0
 10 11  1  0
 11 12  1  0
 12 13  1  0
 13 14  1  0
 14 15  1  0
 15 16  1  0
  9 17  1  0
 17 18  1  0
 18 19  1  0
 19 20  1  0
 20  2  1  0
 20  7  1  0
 16 12  1  0
M  END
>  <Title>  (90) 
idAAJZgen6

$$$$

     RDKit          2D

 59 66  0  0  0  0  0  0  0  0999 V2000
   -3.2384    2.5871    0.0000 C   0  0  0  0  0  0  0  0  0  0  0  0
   -4.6873    2.1989    0.0000 C   0  0  0  0  0  0  0  0  0  0  0  0
   -6.1362    1.8107    0.0000 C   0  0  0  0  0  0  0  0  0  0  0  0
   -5.0755    3.6478    0.0000 C   0  0  0  0  0  0  0  0  0  0  0  0
   -4.2990    0.7500    0.0000 C   0  0  0  0  0  0  0  0  0  0  0  0
   -5.5981    0.0000    0.0000 C   0  0  0  0  0  0  0  0  0  0  0  0
   -6.3481   -1.2990    0.0000 C   0  0  0  0  0  0  0  0  0  0  0  0
   -6.3481   -2.7990    0.0000 C   0  0  0  0  0  0  0  0  0  0  0  0
   -7.7970   -3.1873    0.0000 C   0  0  0  0  0  0  0  0  0  0  0  0
   -8.0758   -4.6611    0.0000 C   0  0  0  0  0  0  0  0  0  0  0  0
   -9.4020   -5.3620    0.0000 C   0  0  0  0  0  0  0  0  0  0  0  0
  -10.7768   -4.7622    0.0000 C   0  0  0  0  0  0  0  0  0  0  0  0
  -11.1651   -3.3133    0.0000 C   0  0  0  0  0  0  0  0  0  0  0  0
  -10.2743   -2.1064    0.0000 C   0  0  0  0  0  0  0  0  0  0  0  0
   -8.7754   -2.0503    0.0000 C   0  0  0  0  0  0  0  0  0  0  0  0
   -9.1636   -0.6014    0.0000 C   0  0  0  0  0  0  0  0  0  0  0  0
   -7.4492   -1.3494    0.0000 C   0  0  0  0  0  0  0  0  0  0  0  0
   -5.5981   -4.0981    0.0000 C   0  0  0  0  0  0  0  0  0  0  0  0
   -4.2990   -4.8481    0.0000 C   0  0  0  0  0  0  0  0  0  0  0  0
   -4.6873   -6.2970    0.0000 C   0  0  0  0  0  0  0  0  0  0  0  0
   -3.5503   -7.2754    0.0000 C   0  0  0  0  0  0  0  0  0  0  0  0
   -3.6064   -8.7743    0.0000 C   0  0  0  0  0  0  0  0  0  0  0  0
   -4.8133   -9.6651    0.0000 C   0  0  0  0  0  0  0  0  0  0  0  0
   -6.2622   -9.2768    0.0000 C   0  0  0  0  0  0  0  0  0  0  0  0
   -6.8620   -7.9020    0.0000 C   0  0  0  0  0  0  0  0  0  0  0  0
   -6.1611   -6.5758    0.0000 C   0  0  0  0  0  0  0  0  0  0  0  0
   -7.6100   -6.1876    0.0000 C   0  0  0  0  0  0  0  0  0  0  0  0
   -6.1050   -5.0769    0.0000 C   0  0  0  0  0  0  0  0  0  0  0  0
   -2.7990   -4.8481    0.0000 C   0  0  0  0  0  0  0  0  0  0  0  0
   -1.5000   -4.0981    0.0000 C   0  0  0  0  0  0  0  0  0  0  0  0
   -0.7500   -2.7990    0.0000 C   0  0  0  0  0  0  0  0  0  0  0  0
   -0.7500   -1.2990    0.0000 C   0  0  0  0  0  0  0  0  0  0  0  0
    0.3107   -2.3597    0.0000 C   0  0  0  0  0  0  0  0  0  0  0  0
    0.7500   -1.2990    0.0000 C   0  0  0  0  0  0  0  0  0  0  0  0
    1.5000   -2.5981    0.0000 C   0  0  0  0  0  0  0  0  0  0  0  0
    3.0000   -2.5981    0.0000 C   0  0  0  0  0  0  0  0  0  0  0  0
    3.7500   -3.8971    0.0000 C   0  0  0  0  0  0  0  0  0  0  0  0
    5.2418   -4.0539    0.0000 C   0  0  0  0  0  0  0  0  0  0  0  0
    5.5537   -5.5211    0.0000 C   0  0  0  0  0  0  0  0  0  0  0  0
    4.2546   -6.2711    0.0000 C   0  0  0  0  0  0  0  0  0  0  0  0
    3.1399   -5.2674    0.0000 C   0  0  0  0  0  0  0  0  0  0  0  0
    1.5000    0.0000    0.0000 C   0  0  0  0  0  0  0  0  0  0  0  0
    0.7500    1.2990    0.0000 C   0  0  0  0  0  0  0  0  0  0  0  0
   -0.7500    1.2990    0.0000 C   0  0  0  0  0  0  0  0  0  0  0  0
   -1.5000    0.0000    0.0000 C   0  0  0  0  0  0  0  0  0  0  0  0
   -1.8882    1.4489    0.0000 C   0  0  0  0  0  0  0  0  0  0  0  0
   -2.7990    0.7500    0.0000 C   0  0  0  0  0  0  0  0  0  0  0  0
   -2.4108    2.1989    0.0000 C   0  0  0  0  0  0  0  0  0  0  0  0
   -3.4715    3.2595    0.0000 C   0  0  0  0  0  0  0  0  0  0  0  0
   -3.0832    4.7084    0.0000 C   0  0  0  0  0  0  0  0  0  0  0  0
   -4.1439    5.7691    0.0000 C   0  0  0  0  0  0  0  0  0  0  0  0
   -3.7557    7.2180    0.0000 C   0  0  0  0  0  0  0  0  0  0  0  0
   -2.3068    7.6062    0.0000 C   0  0  0  0  0  0  0  0  0  0  0  0
   -1.2461    6.5456    0.0000 C   0  0  0  0  0  0  0  0  0  0  0  0
   -4.1439    4.9926    0.0000 C   0  0  0  0  0  0  0  0  0  0  0  0
   -5.5928    5.3809    0.0000 C   0  0  0  0  0  0  0  0  0  0  0  0
   -5.2046    6.8298    0.0000 C   0  0  0  0  0  0  0  0  0  0  0  0
   -4.5321    4.3202    0.0000 C   0  0  0  0  0  0  0  0  0  0  0  0
   -1.6344    5.0967    0.0000 C   0  0  0  0  0  0  0  0  0  0  0  0
  1  2  1  0
  2  3  1  0
  2  4  1  0
  2  5  1  0
  5  6  1  0
  6  7  1  0
  7  8  1  0
  8  9  1  0
  9 10  1  0
 10 11  1  0
 11 12  1  0
 12 13  1  0
 13 14  1  0
 14 15  1  0
 15 16  1  0
 15 17  1  0
  8 18  1  0
 18 19  1  0
 19 20  1  0
 20 21  1  0
 21 22  1  0
 22 23  1  0
 23 24  1  0
 24 25  1  0
 25 26  1  0
 26 27  1  0
 26 28  1  0
 19 29  1  0
 29 30  1  0
 30 31  1  0
 31 32  1  0
 32 33  1  0
 32 34  1  0
 34 35  1  0
 35 36  1  0
 36 37  1  0
 37 38  1  0
 38 39  1  0
 39 40  1  0
 40 41  1  0
 34 42  1  0
 42 43  1  0
 43 44  1  0
 44 45  1  0
 45 46  1  0
 45 47  1  0
 47 48  1  0
 48 49  1  0
 49 50  1  0
 50 51  1  0
 51 52  1  0
 52 53  1  0
 53 54  1  0
 54 55  1  0
 55 56  1  0
 56 57  1  0
 56 58  1  0
 54 59  1  0
 47  5  1  0
 58 50  1  0
 15  9  1  0
 26 20  1  0
 45 32  1  0
 59 50  1  0
 41 37  1  0
 57 52  1  0
M  END
>  <Title>  (91) 
idAAKAgen6

$$$$

     RDKit          2D

 59 64  0  0  0  0  0  0  0  0999 V2000
    3.4189   -1.0636    0.0000 C   0  0  0  0  0  0  0  0  0  0  0  0
    1.9635   -1.4266    0.0000 C   0  0  0  0  0  0  0  0  0  0  0  0
    2.4271   -2.8532    0.0000 C   0  0  0  0  0  0  0  0  0  0  0  0
    3.8943   -3.1650    0.0000 C   0  0  0  0  0  0  0  0  0  0  0  0
    4.3578   -4.5916    0.0000 C   0  0  0  0  0  0  0  0  0  0  0  0
    5.8250   -4.9035    0.0000 C   0  0  0  0  0  0  0  0  0  0  0  0
    7.0686   -4.0648    0.0000 O   0  0  0  0  0  0  0  0  0  0  0  0
    6.2885   -6.3301    0.0000 C   0  0  0  0  0  0  0  0  0  0  0  0
    4.8213   -6.6419    0.0000 O   0  0  0  0  0  0  0  0  0  0  0  0
    6.4453   -7.8219    0.0000 C   0  0  0  0  0  0  0  0  0  0  0  0
    7.9126   -8.1337    0.0000 C   0  0  0  0  0  0  0  0  0  0  0  0
    8.6626   -6.8347    0.0000 C   0  0  0  0  0  0  0  0  0  0  0  0
    7.6589   -5.7200    0.0000 C   0  0  0  0  0  0  0  0  0  0  0  0
    4.8980   -2.0503    0.0000 C   0  0  0  0  0  0  0  0  0  0  0  0
    4.4344   -0.6237    0.0000 O   0  0  0  0  0  0  0  0  0  0  0  0
    6.3652   -2.3622    0.0000 C   0  0  0  0  0  0  0  0  0  0  0  0
    7.0693   -1.0377    0.0000 O   0  0  0  0  0  0  0  0  0  0  0  0
    2.4271    0.0000    0.0000 C   0  0  0  0  0  0  0  0  0  0  0  0
    1.9635    1.4266    0.0000 C   0  0  0  0  0  0  0  0  0  0  0  0
    0.7500    2.3083    0.0000 C   0  0  0  0  0  0  0  0  0  0  0  0
   -0.7500    2.3083    0.0000 C   0  0  0  0  0  0  0  0  0  0  0  0
   -1.9635    1.4266    0.0000 C   0  0  0  0  0  0  0  0  0  0  0  0
   -2.4271    0.0000    0.0000 C   0  0  0  0  0  0  0  0  0  0  0  0
   -1.9635   -1.4266    0.0000 C   0  0  0  0  0  0  0  0  0  0  0  0
   -0.7500   -2.3083    0.0000 C   0  0  0  0  0  0  0  0  0  0  0  0
    0.7500   -2.3083    0.0000 C   0  0  0  0  0  0  0  0  0  0  0  0
    1.2135   -3.7348    0.0000 C   0  0  0  0  0  0  0  0  0  0  0  0
    0.2098   -4.8496    0.0000 C   0  0  0  0  0  0  0  0  0  0  0  0
   -1.2574   -4.5377    0.0000 C   0  0  0  0  0  0  0  0  0  0  0  0
   -2.2611   -5.6524    0.0000 C   0  0  0  0  0  0  0  0  0  0  0  0
   -1.7976   -7.0790    0.0000 C   0  0  0  0  0  0  0  0  0  0  0  0
   -0.3303   -7.3909    0.0000 C   0  0  0  0  0  0  0  0  0  0  0  0
    0.6734   -6.2761    0.0000 C   0  0  0  0  0  0  0  0  0  0  0  0
   -0.7939   -5.9643    0.0000 C   0  0  0  0  0  0  0  0  0  0  0  0
    0.2098   -4.8496    0.0000 C   0  0  0  0  0  0  0  0  0  0  0  0
   -0.2537   -3.4230    0.0000 O   0  0  0  0  0  0  0  0  0  0  0  0
    1.6771   -5.1614    0.0000 N   0  0  0  0  0  0  0  0  0  0  0  0
    2.6807   -4.0467    0.0000 C   0  0  0  0  0  0  0  0  0  0  0  0
    4.1480   -4.3586    0.0000 C   0  0  0  0  0  0  0  0  0  0  0  0
    5.1517   -3.2439    0.0000 C   0  0  0  0  0  0  0  0  0  0  0  0
    6.6189   -3.5557    0.0000 C   0  0  0  0  0  0  0  0  0  0  0  0
    7.6226   -2.4410    0.0000 C   0  0  0  0  0  0  0  0  0  0  0  0
    7.1591   -1.0144    0.0000 C   0  0  0  0  0  0  0  0  0  0  0  0
    5.6918   -0.7026    0.0000 C   0  0  0  0  0  0  0  0  0  0  0  0
    4.6881   -1.8173    0.0000 C   0  0  0  0  0  0  0  0  0  0  0  0
    2.2172   -2.6201    0.0000 C   0  0  0  0  0  0  0  0  0  0  0  0
    0.8691   -1.9625    0.0000 O   0  0  0  0  0  0  0  0  0  0  0  0
    3.2209   -1.5054    0.0000 N   0  0  0  0  0  0  0  0  0  0  0  0
    2.7574   -0.0788    0.0000 C   0  0  0  0  0  0  0  0  0  0  0  0
    3.7611    1.0359    0.0000 C   0  0  0  0  0  0  0  0  0  0  0  0
    3.2976    2.4625    0.0000 C   0  0  0  0  0  0  0  0  0  0  0  0
    4.3013    3.5772    0.0000 C   0  0  0  0  0  0  0  0  0  0  0  0
    3.8377    5.0038    0.0000 C   0  0  0  0  0  0  0  0  0  0  0  0
    2.3705    5.3156    0.0000 C   0  0  0  0  0  0  0  0  0  0  0  0
    1.3668    4.2009    0.0000 C   0  0  0  0  0  0  0  0  0  0  0  0
    1.8303    2.7743    0.0000 C   0  0  0  0  0  0  0  0  0  0  0  0
    1.2902    0.2330    0.0000 C   0  0  0  0  0  0  0  0  0  0  0  0
    0.2865   -0.8817    0.0000 O   0  0  0  0  0  0  0  0  0  0  0  0
    0.4952    1.5051    0.0000 O   0  0  0  0  0  0  0  0  0  0  0  0
  1  2  1  0
  2  3  1  0
  3  4  1  0
  4  5  1  0
  5  6  1  0
  6  7  1  0
  6  8  1  0
  8  9  1  0
  8 10  1  0
 10 11  1  0
 11 12  1  0
 12 13  1  0
  4 14  1  0
 14 15  1  0
 14 16  1  0
 16 17  1  0
  2 18  1  0
 18 19  1  0
 19 20  1  0
 20 21  1  0
 21 22  1  0
 22 23  1  0
 23 24  1  0
 24 25  1  0
 25 26  1  0
 26 27  1  0
 27 28  1  0
 28 29  1  0
 29 30  1  0
 30 31  1  0
 31 32  1  0
 32 33  1  0
 32 34  1  0
 34 35  1  0
 35 36  2  0
 35 37  1  0
 37 38  1  0
 38 39  1  0
 39 40  1  0
 40 41  2  0
 41 42  1  0
 42 43  2  0
 43 44  1  0
 44 45  2  0
 38 46  1  0
 46 47  2  0
 46 48  1  0
 48 49  1  0
 49 50  1  0
 50 51  1  0
 51 52  2  0
 52 53  1  0
 53 54  2  0
 54 55  1  0
 55 56  2  0
 49 57  1  0
 57 58  2  0
 57 59  1  0
 26  2  1  0
 33 28  1  0
 45 40  1  0
 56 51  1  0
 13  8  1  0
 34 30  1  0
M  END
>  <Title>  (92) 
idAAKBgen6

$$$$

     RDKit          2D

 48 52  0  0  0  0  0  0  0  0999 V2000
    3.4635   -1.4266    0.0000 C   0  0  0  0  0  0  0  0  0  0  0  0
    1.9635   -1.4266    0.0000 C   0  0  0  0  0  0  0  0  0  0  0  0
    2.4271   -2.8532    0.0000 C   0  0  0  0  0  0  0  0  0  0  0  0
    3.8943   -3.1650    0.0000 C   0  0  0  0  0  0  0  0  0  0  0  0
    4.3578   -4.5916    0.0000 C   0  0  0  0  0  0  0  0  0  0  0  0
    5.8250   -4.9035    0.0000 C   0  0  0  0  0  0  0  0  0  0  0  0
    6.8287   -3.7888    0.0000 O   0  0  0  0  0  0  0  0  0  0  0  0
    6.2885   -6.3301    0.0000 C   0  0  0  0  0  0  0  0  0  0  0  0
    4.8213   -6.6419    0.0000 O   0  0  0  0  0  0  0  0  0  0  0  0
    6.4453   -7.8219    0.0000 C   0  0  0  0  0  0  0  0  0  0  0  0
    7.9126   -8.1337    0.0000 C   0  0  0  0  0  0  0  0  0  0  0  0
    8.6626   -6.8347    0.0000 C   0  0  0  0  0  0  0  0  0  0  0  0
    7.6589   -5.7200    0.0000 C   0  0  0  0  0  0  0  0  0  0  0  0
    4.8980   -2.0503    0.0000 C   0  0  0  0  0  0  0  0  0  0  0  0
    4.4344   -0.6237    0.0000 O   0  0  0  0  0  0  0  0  0  0  0  0
    6.3652   -2.3622    0.0000 C   0  0  0  0  0  0  0  0  0  0  0  0
    7.3689   -1.2475    0.0000 O   0  0  0  0  0  0  0  0  0  0  0  0
    2.4271    0.0000    0.0000 C   0  0  0  0  0  0  0  0  0  0  0  0
    1.9635    1.4266    0.0000 C   0  0  0  0  0  0  0  0  0  0  0  0
    0.7500    2.3083    0.0000 C   0  0  0  0  0  0  0  0  0  0  0  0
   -0.7500    2.3083    0.0000 C   0  0  0  0  0  0  0  0  0  0  0  0
   -1.9635    1.4266    0.0000 C   0  0  0  0  0  0  0  0  0  0  0  0
   -2.4271    0.0000    0.0000 C   0  0  0  0  0  0  0  0  0  0  0  0
   -1.9635   -1.4266    0.0000 C   0  0  0  0  0  0  0  0  0  0  0  0
   -0.7500   -2.3083    0.0000 C   0  0  0  0  0  0  0  0  0  0  0  0
    0.7500   -2.3083    0.0000 C   0  0  0  0  0  0  0  0  0  0  0  0
    1.2135   -3.7348    0.0000 C   0  0  0  0  0  0  0  0  0  0  0  0
    0.2098   -4.8496    0.0000 C   0  0  0  0  0  0  0  0  0  0  0  0
   -0.7939   -3.7348    0.0000 C   0  0  0  0  0  0  0  0  0  0  0  0
    0.0449   -2.4912    0.0000 C   0  0  0  0  0  0  0  0  0  0  0  0
   -1.9086   -4.7385    0.0000 C   0  0  0  0  0  0  0  0  0  0  0  0
   -1.7976   -2.6201    0.0000 N   0  0  0  0  0  0  0  0  0  0  0  0
   -1.0037   -5.7312    0.0000 C   0  0  0  0  0  0  0  0  0  0  0  0
   -0.5402   -7.1578    0.0000 C   0  0  0  0  0  0  0  0  0  0  0  0
    0.9598   -7.1578    0.0000 C   0  0  0  0  0  0  0  0  0  0  0  0
    0.3497   -8.5281    0.0000 C   0  0  0  0  0  0  0  0  0  0  0  0
    1.9635   -8.2725    0.0000 C   0  0  0  0  0  0  0  0  0  0  0  0
    1.5000   -9.6991    0.0000 C   0  0  0  0  0  0  0  0  0  0  0  0
    2.5037  -10.8138    0.0000 C   0  0  0  0  0  0  0  0  0  0  0  0
    2.0402  -12.2404    0.0000 C   0  0  0  0  0  0  0  0  0  0  0  0
    2.9218  -13.4540    0.0000 C   0  0  0  0  0  0  0  0  0  0  0  0
    2.0402  -14.6675    0.0000 C   0  0  0  0  0  0  0  0  0  0  0  0
    0.6136  -14.2040    0.0000 C   0  0  0  0  0  0  0  0  0  0  0  0
    0.6136  -12.7040    0.0000 C   0  0  0  0  0  0  0  0  0  0  0  0
    3.4307   -7.9607    0.0000 C   0  0  0  0  0  0  0  0  0  0  0  0
    3.8943   -6.5341    0.0000 C   0  0  0  0  0  0  0  0  0  0  0  0
    2.8906   -5.4194    0.0000 C   0  0  0  0  0  0  0  0  0  0  0  0
    1.4234   -5.7312    0.0000 C   0  0  0  0  0  0  0  0  0  0  0  0
  1  2  1  0
  2  3  1  0
  3  4  1  0
  4  5  1  0
  5  6  1  0
  6  7  1  0
  6  8  1  0
  8  9  1  0
  8 10  1  0
 10 11  1  0
 11 12  1  0
 12 13  1  0
  4 14  1  0
 14 15  1  0
 14 16  1  0
 16 17  1  0
  2 18  1  0
 18 19  1  0
 19 20  1  0
 20 21  1  0
 21 22  1  0
 22 23  1  0
 23 24  1  0
 24 25  1  0
 25 26  1  0
 26 27  1  0
 27 28  1  0
 28 29  1  0
 29 30  1  0
 29 31  1  0
 29 32  1  0
 28 33  1  0
 33 34  1  0
 34 35  1  0
 35 36  1  0
 35 37  1  0
 37 38  1  0
 38 39  1  0
 39 40  1  0
 40 41  1  0
 41 42  1  0
 42 43  1  0
 43 44  1  0
 37 45  1  0
 45 46  1  0
 46 47  1  0
 47 48  1  0
 26  2  1  0
 48 28  1  0
 13  8  1  0
 48 35  1  0
 44 40  1  0
M  END
>  <Title>  (93) 
idAAKCgen6

$$$$

     RDKit          2D

 59 64  0  0  0  0  0  0  0  0999 V2000
   -2.5458    3.5977    0.0000 C   0  0  0  0  0  0  0  0  0  0  0  0
   -3.4031    2.3668    0.0000 C   0  0  0  0  0  0  0  0  0  0  0  0
   -2.1895    1.4851    0.0000 C   0  0  0  0  0  0  0  0  0  0  0  0
   -0.8192    2.0952    0.0000 C   0  0  0  0  0  0  0  0  0  0  0  0
    0.3943    1.2135    0.0000 C   0  0  0  0  0  0  0  0  0  0  0  0
    1.2760    0.0000    0.0000 C   0  0  0  0  0  0  0  0  0  0  0  0
    0.3943   -1.2135    0.0000 C   0  0  0  0  0  0  0  0  0  0  0  0
   -1.0323   -0.7500    0.0000 C   0  0  0  0  0  0  0  0  0  0  0  0
   -2.3463   -0.0067    0.0000 C   0  0  0  0  0  0  0  0  0  0  0  0
   -1.0323    0.7500    0.0000 C   0  0  0  0  0  0  0  0  0  0  0  0
   -2.2458    1.6317    0.0000 C   0  0  0  0  0  0  0  0  0  0  0  0
   -3.4278    0.7081    0.0000 O   0  0  0  0  0  0  0  0  0  0  0  0
   -2.0890    3.1235    0.0000 N   0  0  0  0  0  0  0  0  0  0  0  0
   -3.3025    4.0051    0.0000 C   0  0  0  0  0  0  0  0  0  0  0  0
   -3.1458    5.4969    0.0000 C   0  0  0  0  0  0  0  0  0  0  0  0
   -4.3593    6.3786    0.0000 C   0  0  0  0  0  0  0  0  0  0  0  0
   -4.2025    7.8704    0.0000 C   0  0  0  0  0  0  0  0  0  0  0  0
   -5.4160    8.7521    0.0000 C   0  0  0  0  0  0  0  0  0  0  0  0
   -6.7863    8.1420    0.0000 C   0  0  0  0  0  0  0  0  0  0  0  0
   -6.9431    6.6502    0.0000 C   0  0  0  0  0  0  0  0  0  0  0  0
   -5.7296    5.7685    0.0000 C   0  0  0  0  0  0  0  0  0  0  0  0
   -4.6729    3.3950    0.0000 C   0  0  0  0  0  0  0  0  0  0  0  0
   -4.8297    1.9033    0.0000 O   0  0  0  0  0  0  0  0  0  0  0  0
   -5.8864    4.2767    0.0000 N   0  0  0  0  0  0  0  0  0  0  0  0
   -7.2567    3.6666    0.0000 C   0  0  0  0  0  0  0  0  0  0  0  0
   -8.4702    4.5483    0.0000 C   0  0  0  0  0  0  0  0  0  0  0  0
   -9.8406    3.9382    0.0000 C   0  0  0  0  0  0  0  0  0  0  0  0
  -11.0541    4.8199    0.0000 C   0  0  0  0  0  0  0  0  0  0  0  0
  -12.4244    4.2098    0.0000 C   0  0  0  0  0  0  0  0  0  0  0  0
  -12.5812    2.7180    0.0000 C   0  0  0  0  0  0  0  0  0  0  0  0
  -11.3677    1.8363    0.0000 C   0  0  0  0  0  0  0  0  0  0  0  0
   -9.9973    2.4464    0.0000 C   0  0  0  0  0  0  0  0  0  0  0  0
   -7.4135    2.1748    0.0000 C   0  0  0  0  0  0  0  0  0  0  0  0
   -6.4494    1.0257    0.0000 O   0  0  0  0  0  0  0  0  0  0  0  0
   -8.7838    1.5647    0.0000 N   0  0  0  0  0  0  0  0  0  0  0  0
   -8.9406    0.0729    0.0000 C   0  0  0  0  0  0  0  0  0  0  0  0
  -10.3109   -0.5372    0.0000 C   0  0  0  0  0  0  0  0  0  0  0  0
  -10.4677   -2.0290    0.0000 C   0  0  0  0  0  0  0  0  0  0  0  0
  -11.8380   -2.6391    0.0000 C   0  0  0  0  0  0  0  0  0  0  0  0
  -11.9948   -4.1308    0.0000 C   0  0  0  0  0  0  0  0  0  0  0  0
  -10.7813   -5.0125    0.0000 C   0  0  0  0  0  0  0  0  0  0  0  0
   -9.4110   -4.4024    0.0000 C   0  0  0  0  0  0  0  0  0  0  0  0
   -9.2542   -2.9106    0.0000 C   0  0  0  0  0  0  0  0  0  0  0  0
   -7.7271   -0.8087    0.0000 C   0  0  0  0  0  0  0  0  0  0  0  0
   -6.3568   -0.1986    0.0000 O   0  0  0  0  0  0  0  0  0  0  0  0
   -8.2402   -2.2183    0.0000 O   0  0  0  0  0  0  0  0  0  0  0  0
   -4.1139    3.6877    0.0000 C   0  0  0  0  0  0  0  0  0  0  0  0
   -5.5898    3.9555    0.0000 C   0  0  0  0  0  0  0  0  0  0  0  0
   -6.7194    2.9686    0.0000 C   0  0  0  0  0  0  0  0  0  0  0  0
   -6.6521    1.4701    0.0000 C   0  0  0  0  0  0  0  0  0  0  0  0
   -5.4386    0.5884    0.0000 C   0  0  0  0  0  0  0  0  0  0  0  0
   -5.7064   -0.8875    0.0000 C   0  0  0  0  0  0  0  0  0  0  0  0
   -7.1185   -1.3935    0.0000 C   0  0  0  0  0  0  0  0  0  0  0  0
   -7.9940   -0.1755    0.0000 O   0  0  0  0  0  0  0  0  0  0  0  0
   -7.3863   -2.8694    0.0000 C   0  0  0  0  0  0  0  0  0  0  0  0
   -6.2421   -3.8393    0.0000 O   0  0  0  0  0  0  0  0  0  0  0  0
   -8.7984   -3.3753    0.0000 C   0  0  0  0  0  0  0  0  0  0  0  0
   -8.7011   -4.8722    0.0000 O   0  0  0  0  0  0  0  0  0  0  0  0
   -3.9926    0.9875    0.0000 C   0  0  0  0  0  0  0  0  0  0  0  0
  1  2  1  0
  2  3  1  0
  3  4  1  0
  4  5  1  0
  5  6  1  0
  6  7  1  0
  7  8  1  0
  8  9  1  0
  8 10  1  0
 10 11  1  0
 11 12  2  0
 11 13  1  0
 13 14  1  0
 14 15  1  0
 15 16  1  0
 16 17  2  0
 17 18  1  0
 18 19  2  0
 19 20  1  0
 20 21  2  0
 14 22  1  0
 22 23  2  0
 22 24  1  0
 24 25  1  0
 25 26  1  0
 26 27  1  0
 27 28  2  0
 28 29  1  0
 29 30  2  0
 30 31  1  0
 31 32  2  0
 25 33  1  0
 33 34  2  0
 33 35  1  0
 35 36  1  0
 36 37  1  0
 37 38  1  0
 38 39  2  0
 39 40  1  0
 40 41  2  0
 41 42  1  0
 42 43  2  0
 36 44  1  0
 44 45  2  0
 44 46  1  0
  2 47  1  0
 47 48  1  0
 48 49  1  0
 49 50  1  0
 50 51  1  0
 51 52  1  0
 52 53  1  0
 53 54  1  0
 53 55  1  0
 55 56  1  0
 55 57  1  0
 57 58  1  0
 51 59  1  0
 59  2  1  0
  9  3  1  0
 21 16  1  0
 32 27  1  0
 43 38  1  0
 10  5  1  0
M  END
>  <Title>  (94) 
idAAKDgen6

$$$$

     RDKit          2D

 40 42  0  0  0  0  0  0  0  0999 V2000
    2.0257    2.8691    0.0000 C   0  0  0  0  0  0  0  0  0  0  0  0
    1.6798    1.4095    0.0000 C   0  0  0  0  0  0  0  0  0  0  0  0
    3.1773    1.4968    0.0000 C   0  0  0  0  0  0  0  0  0  0  0  0
    3.8505    2.8372    0.0000 C   0  0  0  0  0  0  0  0  0  0  0  0
    5.3479    2.9244    0.0000 C   0  0  0  0  0  0  0  0  0  0  0  0
    6.0211    4.2649    0.0000 C   0  0  0  0  0  0  0  0  0  0  0  0
    5.1969    5.5181    0.0000 O   0  0  0  0  0  0  0  0  0  0  0  0
    7.5186    4.3521    0.0000 C   0  0  0  0  0  0  0  0  0  0  0  0
    7.4488    2.8537    0.0000 O   0  0  0  0  0  0  0  0  0  0  0  0
    9.0015    4.1261    0.0000 C   0  0  0  0  0  0  0  0  0  0  0  0
    9.6747    5.4665    0.0000 C   0  0  0  0  0  0  0  0  0  0  0  0
    8.6079    6.5210    0.0000 C   0  0  0  0  0  0  0  0  0  0  0  0
    7.2753    5.8322    0.0000 C   0  0  0  0  0  0  0  0  0  0  0  0
    3.0262    4.0904    0.0000 C   0  0  0  0  0  0  0  0  0  0  0  0
    1.8309    3.8725    0.0000 O   0  0  0  0  0  0  0  0  0  0  0  0
    3.6994    5.4309    0.0000 C   0  0  0  0  0  0  0  0  0  0  0  0
    2.8752    6.6841    0.0000 O   0  0  0  0  0  0  0  0  0  0  0  0
    2.1929    0.0000    0.0000 C   0  0  0  0  0  0  0  0  0  0  0  0
    1.6798   -1.4095    0.0000 C   0  0  0  0  0  0  0  0  0  0  0  0
    0.3808   -2.1595    0.0000 C   0  0  0  0  0  0  0  0  0  0  0  0
   -1.0964   -1.8991    0.0000 C   0  0  0  0  0  0  0  0  0  0  0  0
   -2.0606   -0.7500    0.0000 C   0  0  0  0  0  0  0  0  0  0  0  0
   -2.0606    0.7500    0.0000 C   0  0  0  0  0  0  0  0  0  0  0  0
   -1.0964    1.8991    0.0000 C   0  0  0  0  0  0  0  0  0  0  0  0
    0.3808    2.1595    0.0000 C   0  0  0  0  0  0  0  0  0  0  0  0
    0.6413    3.6368    0.0000 C   0  0  0  0  0  0  0  0  0  0  0  0
   -0.5078    4.6009    0.0000 C   0  0  0  0  0  0  0  0  0  0  0  0
   -1.1921    3.2661    0.0000 C   0  0  0  0  0  0  0  0  0  0  0  0
   -2.5269    3.9504    0.0000 C   0  0  0  0  0  0  0  0  0  0  0  0
   -0.2772    2.4667    0.0000 C   0  0  0  0  0  0  0  0  0  0  0  0
   -1.8764    1.9313    0.0000 C   0  0  0  0  0  0  0  0  0  0  0  0
   -1.9614    4.9711    0.0000 C   0  0  0  0  0  0  0  0  0  0  0  0
   -2.5784    6.3383    0.0000 C   0  0  0  0  0  0  0  0  0  0  0  0
   -4.0779    6.3757    0.0000 O   0  0  0  0  0  0  0  0  0  0  0  0
   -1.8940    7.6731    0.0000 C   0  0  0  0  0  0  0  0  0  0  0  0
   -0.4238    7.9704    0.0000 C   0  0  0  0  0  0  0  0  0  0  0  0
    0.7253    7.0062    0.0000 C   0  0  0  0  0  0  0  0  0  0  0  0
    0.6879    5.5066    0.0000 C   0  0  0  0  0  0  0  0  0  0  0  0
    2.1581    5.8039    0.0000 C   0  0  0  0  0  0  0  0  0  0  0  0
    1.0489    4.3465    0.0000 C   0  0  0  0  0  0  0  0  0  0  0  0
  1  2  1  0
  2  3  1  0
  3  4  1  0
  4  5  1  0
  5  6  1  0
  6  7  1  0
  6  8  1  0
  8  9  1  0
  8 10  1  0
 10 11  1  0
 11 12  1  0
 12 13  1  0
  4 14  1  0
 14 15  1  0
 14 16  1  0
 16 17  1  0
  2 18  1  0
 18 19  1  0
 19 20  1  0
 20 21  1  0
 21 22  1  0
 22 23  1  0
 23 24  1  0
 24 25  1  0
 25 26  1  0
 26 27  1  0
 27 28  1  0
 28 29  1  0
 28 30  1  0
 28 31  1  0
 27 32  1  0
 32 33  1  0
 33 34  1  0
 33 35  1  0
 35 36  1  0
 36 37  1  0
 37 38  1  0
 38 39  1  0
 38 40  1  0
 25  2  1  0
 38 27  1  0
 13  8  1  0
M  END
>  <Title>  (95) 
idAAKEgen6

$$$$

     RDKit          2D

 37 39  0  0  0  0  0  0  0  0999 V2000
   -8.7718   -8.1269    0.0000 C   0  0  0  0  0  0  0  0  0  0  0  0
   -7.5583   -7.2452    0.0000 C   0  0  0  0  0  0  0  0  0  0  0  0
   -6.1317   -7.7087    0.0000 C   0  0  0  0  0  0  0  0  0  0  0  0
   -5.2500   -6.4952    0.0000 C   0  0  0  0  0  0  0  0  0  0  0  0
   -3.7500   -6.4952    0.0000 C   0  0  0  0  0  0  0  0  0  0  0  0
   -3.0000   -5.1962    0.0000 C   0  0  0  0  0  0  0  0  0  0  0  0
   -1.5000   -5.1962    0.0000 C   0  0  0  0  0  0  0  0  0  0  0  0
   -0.7500   -6.4952    0.0000 O   0  0  0  0  0  0  0  0  0  0  0  0
   -0.7500   -3.8971    0.0000 N   0  0  0  0  0  0  0  0  0  0  0  0
    0.7500   -3.8971    0.0000 C   0  0  0  0  0  0  0  0  0  0  0  0
    1.5000   -2.5981    0.0000 C   0  0  0  0  0  0  0  0  0  0  0  0
    0.7500   -1.2990    0.0000 C   0  0  0  0  0  0  0  0  0  0  0  0
    1.5000    0.0000    0.0000 C   0  0  0  0  0  0  0  0  0  0  0  0
    0.7500    1.2990    0.0000 C   0  0  0  0  0  0  0  0  0  0  0  0
   -0.7500    1.2990    0.0000 C   0  0  0  0  0  0  0  0  0  0  0  0
   -1.5000    0.0000    0.0000 C   0  0  0  0  0  0  0  0  0  0  0  0
   -0.7500   -1.2990    0.0000 C   0  0  0  0  0  0  0  0  0  0  0  0
    1.5000   -5.1962    0.0000 C   0  0  0  0  0  0  0  0  0  0  0  0
    3.0000   -5.1962    0.0000 O   0  0  0  0  0  0  0  0  0  0  0  0
    0.7500   -6.4952    0.0000 N   0  0  0  0  0  0  0  0  0  0  0  0
    1.5000   -7.7942    0.0000 C   0  0  0  0  0  0  0  0  0  0  0  0
    0.7500   -9.0933    0.0000 C   0  0  0  0  0  0  0  0  0  0  0  0
    1.5000  -10.3923    0.0000 C   0  0  0  0  0  0  0  0  0  0  0  0
    0.7500  -11.6913    0.0000 C   0  0  0  0  0  0  0  0  0  0  0  0
    1.5000  -12.9904    0.0000 C   0  0  0  0  0  0  0  0  0  0  0  0
    3.0000  -12.9904    0.0000 C   0  0  0  0  0  0  0  0  0  0  0  0
    3.7500  -11.6913    0.0000 C   0  0  0  0  0  0  0  0  0  0  0  0
    3.0000  -10.3923    0.0000 C   0  0  0  0  0  0  0  0  0  0  0  0
    3.0000   -7.7942    0.0000 C   0  0  0  0  0  0  0  0  0  0  0  0
    3.7500   -6.4952    0.0000 O   0  0  0  0  0  0  0  0  0  0  0  0
    3.7500   -9.0933    0.0000 O   0  0  0  0  0  0  0  0  0  0  0  0
   -6.1317   -5.2817    0.0000 C   0  0  0  0  0  0  0  0  0  0  0  0
   -7.5583   -5.7452    0.0000 N   0  0  0  0  0  0  0  0  0  0  0  0
   -8.7718   -4.8635    0.0000 C   0  0  0  0  0  0  0  0  0  0  0  0
   -7.8901   -3.6500    0.0000 C   0  0  0  0  0  0  0  0  0  0  0  0
   -9.6535   -6.0770    0.0000 C   0  0  0  0  0  0  0  0  0  0  0  0
   -9.9853   -3.9818    0.0000 C   0  0  0  0  0  0  0  0  0  0  0  0
  1  2  1  0
  2  3  1  0
  3  4  1  0
  4  5  1  0
  5  6  1  0
  6  7  1  0
  7  8  2  0
  7  9  1  0
  9 10  1  0
 10 11  1  0
 11 12  1  0
 12 13  2  0
 13 14  1  0
 14 15  2  0
 15 16  1  0
 16 17  2  0
 10 18  1  0
 18 19  2  0
 18 20  1  0
 20 21  1  0
 21 22  1  0
 22 23  1  0
 23 24  2  0
 24 25  1  0
 25 26  2  0
 26 27  1  0
 27 28  2  0
 21 29  1  0
 29 30  2  0
 29 31  1  0
  4 32  1  0
 32 33  1  0
 33 34  1  0
 34 35  1  0
 34 36  1  0
 34 37  1  0
 33  2  1  0
 17 12  1  0
 28 23  1  0
M  END
>  <Title>  (96) 
idAAKFgen6

$$$$

     RDKit          2D

 22 23  0  0  0  0  0  0  0  0999 V2000
    5.2913   -8.9656    0.0000 C   0  0  0  0  0  0  0  0  0  0  0  0
    5.6796   -7.5167    0.0000 C   0  0  0  0  0  0  0  0  0  0  0  0
    7.1285   -7.1285    0.0000 C   0  0  0  0  0  0  0  0  0  0  0  0
    4.6189   -6.4560    0.0000 C   0  0  0  0  0  0  0  0  0  0  0  0
    3.1700   -6.8443    0.0000 O   0  0  0  0  0  0  0  0  0  0  0  0
    5.0071   -5.0071    0.0000 C   0  0  0  0  0  0  0  0  0  0  0  0
    3.9465   -3.9465    0.0000 C   0  0  0  0  0  0  0  0  0  0  0  0
    2.4465   -3.9465    0.0000 C   0  0  0  0  0  0  0  0  0  0  0  0
    2.4465   -2.4465    0.0000 C   0  0  0  0  0  0  0  0  0  0  0  0
    1.3858   -1.3858    0.0000 C   0  0  0  0  0  0  0  0  0  0  0  0
    1.9598    0.0000    0.0000 C   0  0  0  0  0  0  0  0  0  0  0  0
    1.3858    1.3858    0.0000 C   0  0  0  0  0  0  0  0  0  0  0  0
    0.0000    1.9598    0.0000 C   0  0  0  0  0  0  0  0  0  0  0  0
   -1.3858    1.3858    0.0000 C   0  0  0  0  0  0  0  0  0  0  0  0
   -1.9598    0.0000    0.0000 C   0  0  0  0  0  0  0  0  0  0  0  0
   -3.4598    0.0000    0.0000 C   0  0  0  0  0  0  0  0  0  0  0  0
   -3.4598    1.5000    0.0000 C   0  0  0  0  0  0  0  0  0  0  0  0
   -3.4598   -1.5000    0.0000 C   0  0  0  0  0  0  0  0  0  0  0  0
   -4.9598    0.0000    0.0000 C   0  0  0  0  0  0  0  0  0  0  0  0
   -1.3858   -1.3858    0.0000 C   0  0  0  0  0  0  0  0  0  0  0  0
   -0.0000   -1.9598    0.0000 C   0  0  0  0  0  0  0  0  0  0  0  0
    3.9465   -2.4465    0.0000 C   0  0  0  0  0  0  0  0  0  0  0  0
  1  2  1  0
  2  3  1  0
  2  4  1  0
  4  5  1  0
  4  6  1  0
  6  7  1  0
  7  8  1  0
  8  9  1  0
  9 10  1  0
 10 11  1  0
 11 12  1  0
 12 13  1  0
 13 14  1  0
 14 15  1  0
 15 16  1  0
 16 17  1  0
 16 18  1  0
 16 19  1  0
 15 20  1  0
 20 21  1  0
  9 22  1  0
 22  7  1  0
 21 10  1  0
M  END
>  <Title>  (97) 
idAAKGgen6

$$$$

     RDKit          2D

 35 40  0  0  0  0  0  0  0  0999 V2000
    1.4650    3.9205    0.0000 O   0  0  0  0  0  0  0  0  0  0  0  0
    2.0130    2.5242    0.0000 C   0  0  0  0  0  0  0  0  0  0  0  0
    3.4962    2.3006    0.0000 N   0  0  0  0  0  0  0  0  0  0  0  0
    4.4315    3.4734    0.0000 C   0  0  0  0  0  0  0  0  0  0  0  0
    5.9147    3.2498    0.0000 C   0  0  0  0  0  0  0  0  0  0  0  0
    6.8499    4.4226    0.0000 C   0  0  0  0  0  0  0  0  0  0  0  0
    7.3770    5.8269    0.0000 C   0  0  0  0  0  0  0  0  0  0  0  0
    6.2043    6.7622    0.0000 C   0  0  0  0  0  0  0  0  0  0  0  0
    4.9524    5.9358    0.0000 C   0  0  0  0  0  0  0  0  0  0  0  0
    3.8835    4.8697    0.0000 C   0  0  0  0  0  0  0  0  0  0  0  0
    5.3515    4.4899    0.0000 N   0  0  0  0  0  0  0  0  0  0  0  0
    4.4162    3.3171    0.0000 C   0  0  0  0  0  0  0  0  0  0  0  0
    2.9330    3.5407    0.0000 C   0  0  0  0  0  0  0  0  0  0  0  0
    1.9977    2.3679    0.0000 C   0  0  0  0  0  0  0  0  0  0  0  0
    0.5145    2.5915    0.0000 C   0  0  0  0  0  0  0  0  0  0  0  0
   -0.4207    1.4188    0.0000 C   0  0  0  0  0  0  0  0  0  0  0  0
    0.1273    0.0224    0.0000 C   0  0  0  0  0  0  0  0  0  0  0  0
    1.6105   -0.2011    0.0000 C   0  0  0  0  0  0  0  0  0  0  0  0
    2.5458    0.9716    0.0000 C   0  0  0  0  0  0  0  0  0  0  0  0
    1.0777    1.3515    0.0000 C   0  0  0  0  0  0  0  0  0  0  0  0
    1.7286    0.0000    0.0000 C   0  0  0  0  0  0  0  0  0  0  0  0
    1.0777   -1.3515    0.0000 O   0  0  0  0  0  0  0  0  0  0  0  0
   -0.3846   -1.6852    0.0000 C   0  0  0  0  0  0  0  0  0  0  0  0
   -1.5574   -0.7500    0.0000 C   0  0  0  0  0  0  0  0  0  0  0  0
   -1.5574    0.7500    0.0000 C   0  0  0  0  0  0  0  0  0  0  0  0
   -0.3846    1.6852    0.0000 C   0  0  0  0  0  0  0  0  0  0  0  0
   -0.3846   -0.1852    0.0000 N   0  0  0  0  0  0  0  0  0  0  0  0
    0.9668    0.4656    0.0000 C   0  0  0  0  0  0  0  0  0  0  0  0
    2.2062   -0.3794    0.0000 C   0  0  0  0  0  0  0  0  0  0  0  0
    3.5576    0.2714    0.0000 C   0  0  0  0  0  0  0  0  0  0  0  0
    4.7970   -0.5735    0.0000 C   0  0  0  0  0  0  0  0  0  0  0  0
    6.1484    0.0773    0.0000 C   0  0  0  0  0  0  0  0  0  0  0  0
    6.2605    1.5731    0.0000 C   0  0  0  0  0  0  0  0  0  0  0  0
    5.0212    2.4181    0.0000 C   0  0  0  0  0  0  0  0  0  0  0  0
    3.6697    1.7672    0.0000 C   0  0  0  0  0  0  0  0  0  0  0  0
  1  2  2  0
  2  3  1  0
  3  4  1  0
  4  5  1  0
  5  6  1  0
  6  7  1  0
  7  8  1  0
  8  9  1  0
  9 10  1  0
  9 11  1  0
 11 12  1  0
 12 13  1  0
 13 14  1  0
 14 15  2  0
 15 16  1  0
 16 17  2  0
 17 18  1  0
 18 19  2  0
  2 20  1  0
 20 21  1  0
 21 22  1  0
 22 23  1  0
 23 24  1  0
 24 25  1  0
 25 26  1  0
 25 27  1  0
 27 28  1  0
 28 29  1  0
 29 30  1  0
 30 31  2  0
 31 32  1  0
 32 33  2  0
 33 34  1  0
 34 35  2  0
 10  4  1  0
 19 14  1  0
 26 20  1  0
 35 30  1  0
 11  6  1  0
 27 23  1  0
M  END
>  <Title>  (98) 
idAAKHgen6

$$$$

     RDKit          2D

 57 62  0  0  0  0  0  0  0  0999 V2000
    4.5000   -2.5981    0.0000 O   0  0  0  0  0  0  0  0  0  0  0  0
    5.2500   -3.8971    0.0000 C   0  0  0  0  0  0  0  0  0  0  0  0
    6.7500   -3.8971    0.0000 O   0  0  0  0  0  0  0  0  0  0  0  0
    4.5000   -5.1962    0.0000 C   0  0  0  0  0  0  0  0  0  0  0  0
    5.2500   -6.4952    0.0000 C   0  0  0  0  0  0  0  0  0  0  0  0
    6.7500   -6.4952    0.0000 C   0  0  0  0  0  0  0  0  0  0  0  0
    7.5000   -7.7942    0.0000 C   0  0  0  0  0  0  0  0  0  0  0  0
    9.0000   -7.7942    0.0000 C   0  0  0  0  0  0  0  0  0  0  0  0
    9.7500   -6.4952    0.0000 C   0  0  0  0  0  0  0  0  0  0  0  0
    9.0000   -5.1962    0.0000 C   0  0  0  0  0  0  0  0  0  0  0  0
    7.5000   -5.1962    0.0000 C   0  0  0  0  0  0  0  0  0  0  0  0
    3.0000   -5.1962    0.0000 N   0  0  0  0  0  0  0  0  0  0  0  0
    2.2500   -3.8971    0.0000 C   0  0  0  0  0  0  0  0  0  0  0  0
    3.0000   -2.5981    0.0000 O   0  0  0  0  0  0  0  0  0  0  0  0
    0.7500   -3.8971    0.0000 C   0  0  0  0  0  0  0  0  0  0  0  0
   -0.0000   -5.1962    0.0000 C   0  0  0  0  0  0  0  0  0  0  0  0
    0.7500   -6.4952    0.0000 C   0  0  0  0  0  0  0  0  0  0  0  0
   -0.0000   -7.7942    0.0000 C   0  0  0  0  0  0  0  0  0  0  0  0
    0.7500   -9.0933    0.0000 C   0  0  0  0  0  0  0  0  0  0  0  0
    2.2500   -9.0933    0.0000 C   0  0  0  0  0  0  0  0  0  0  0  0
    3.0000   -7.7942    0.0000 C   0  0  0  0  0  0  0  0  0  0  0  0
    2.2500   -6.4952    0.0000 C   0  0  0  0  0  0  0  0  0  0  0  0
   -0.0000   -2.5981    0.0000 O   0  0  0  0  0  0  0  0  0  0  0  0
    0.7500   -1.2990    0.0000 C   0  0  0  0  0  0  0  0  0  0  0  0
    2.2500   -1.2990    0.0000 O   0  0  0  0  0  0  0  0  0  0  0  0
   -0.0000    0.0000    0.0000 C   0  0  0  0  0  0  0  0  0  0  0  0
   -1.5000    0.0000    0.0000 C   0  0  0  0  0  0  0  0  0  0  0  0
   -0.7500   -1.2990    0.0000 C   0  0  0  0  0  0  0  0  0  0  0  0
    0.7500   -1.2990    0.0000 C   0  0  0  0  0  0  0  0  0  0  0  0
    1.5000   -2.5981    0.0000 N   0  0  0  0  0  0  0  0  0  0  0  0
    0.7500   -3.8971    0.0000 C   0  0  0  0  0  0  0  0  0  0  0  0
   -0.7500   -3.8971    0.0000 O   0  0  0  0  0  0  0  0  0  0  0  0
    1.5000   -5.1962    0.0000 C   0  0  0  0  0  0  0  0  0  0  0  0
    0.7500   -6.4952    0.0000 C   0  0  0  0  0  0  0  0  0  0  0  0
    1.5000   -7.7942    0.0000 C   0  0  0  0  0  0  0  0  0  0  0  0
    0.7500   -9.0933    0.0000 C   0  0  0  0  0  0  0  0  0  0  0  0
    1.5000  -10.3923    0.0000 C   0  0  0  0  0  0  0  0  0  0  0  0
    3.0000  -10.3923    0.0000 C   0  0  0  0  0  0  0  0  0  0  0  0
    3.7500   -9.0933    0.0000 C   0  0  0  0  0  0  0  0  0  0  0  0
    3.0000   -7.7942    0.0000 C   0  0  0  0  0  0  0  0  0  0  0  0
    3.0000   -5.1962    0.0000 C   0  0  0  0  0  0  0  0  0  0  0  0
    3.7500   -3.8971    0.0000 O   0  0  0  0  0  0  0  0  0  0  0  0
    3.7500   -6.4952    0.0000 N   0  0  0  0  0  0  0  0  0  0  0  0
    5.2500   -6.4952    0.0000 C   0  0  0  0  0  0  0  0  0  0  0  0
    6.0000   -7.7942    0.0000 C   0  0  0  0  0  0  0  0  0  0  0  0
    7.5000   -7.7942    0.0000 C   0  0  0  0  0  0  0  0  0  0  0  0
    8.2500   -9.0933    0.0000 C   0  0  0  0  0  0  0  0  0  0  0  0
    9.7500   -9.0933    0.0000 C   0  0  0  0  0  0  0  0  0  0  0  0
   10.5000   -7.7942    0.0000 C   0  0  0  0  0  0  0  0  0  0  0  0
    9.7500   -6.4952    0.0000 C   0  0  0  0  0  0  0  0  0  0  0  0
    8.2500   -6.4952    0.0000 C   0  0  0  0  0  0  0  0  0  0  0  0
    6.0000   -5.1962    0.0000 C   0  0  0  0  0  0  0  0  0  0  0  0
    5.5866   -3.7542    0.0000 O   0  0  0  0  0  0  0  0  0  0  0  0
    7.4554   -4.8332    0.0000 O   0  0  0  0  0  0  0  0  0  0  0  0
    1.5000    0.0000    0.0000 C   0  0  0  0  0  0  0  0  0  0  0  0
    0.7500    1.2990    0.0000 C   0  0  0  0  0  0  0  0  0  0  0  0
   -0.7500    1.2990    0.0000 C   0  0  0  0  0  0  0  0  0  0  0  0
  1  2  2  0
  2  3  1  0
  2  4  1  0
  4  5  1  0
  5  6  1  0
  6  7  2  0
  7  8  1  0
  8  9  2  0
  9 10  1  0
 10 11  2  0
  4 12  1  0
 12 13  1  0
 13 14  2  0
 13 15  1  0
 15 16  1  0
 16 17  1  0
 17 18  2  0
 18 19  1  0
 19 20  2  0
 20 21  1  0
 21 22  2  0
 15 23  1  0
 23 24  1  0
 24 25  2  0
 24 26  1  0
 26 27  1  0
 27 28  1  0
 28 29  1  0
 29 30  1  0
 30 31  1  0
 31 32  2  0
 31 33  1  0
 33 34  1  0
 34 35  1  0
 35 36  2  0
 36 37  1  0
 37 38  2  0
 38 39  1  0
 39 40  2  0
 33 41  1  0
 41 42  2  0
 41 43  1  0
 43 44  1  0
 44 45  1  0
 45 46  1  0
 46 47  2  0
 47 48  1  0
 48 49  2  0
 49 50  1  0
 50 51  2  0
 44 52  1  0
 52 53  2  0
 52 54  1  0
 29 55  1  0
 55 56  1  0
 56 57  1  0
 11  6  1  0
 22 17  1  0
 56 26  1  0
 57 27  1  0
 40 35  1  0
 51 46  1  0
M  END
>  <Title>  (99) 
idAAKIgen6

$$$$

     RDKit          2D

 21 23  0  0  0  0  0  0  0  0999 V2000
   -5.0856   -0.4229    0.0000 C   0  0  0  0  0  0  0  0  0  0  0  0
   -4.0819    0.6918    0.0000 C   0  0  0  0  0  0  0  0  0  0  0  0
   -3.0782    1.8065    0.0000 C   0  0  0  0  0  0  0  0  0  0  0  0
   -5.1967    1.6955    0.0000 C   0  0  0  0  0  0  0  0  0  0  0  0
   -2.9672   -0.3119    0.0000 C   0  0  0  0  0  0  0  0  0  0  0  0
   -3.1240   -1.8037    0.0000 C   0  0  0  0  0  0  0  0  0  0  0  0
   -1.7537   -2.4138    0.0000 C   0  0  0  0  0  0  0  0  0  0  0  0
   -0.7500   -1.2990    0.0000 C   0  0  0  0  0  0  0  0  0  0  0  0
   -0.1399   -2.6694    0.0000 C   0  0  0  0  0  0  0  0  0  0  0  0
    0.7500   -1.2990    0.0000 C   0  0  0  0  0  0  0  0  0  0  0  0
    1.5000   -2.5981    0.0000 C   0  0  0  0  0  0  0  0  0  0  0  0
    3.0000   -2.5981    0.0000 C   0  0  0  0  0  0  0  0  0  0  0  0
    3.7500   -3.8971    0.0000 C   0  0  0  0  0  0  0  0  0  0  0  0
    5.2418   -4.0539    0.0000 C   0  0  0  0  0  0  0  0  0  0  0  0
    5.5537   -5.5211    0.0000 C   0  0  0  0  0  0  0  0  0  0  0  0
    4.2546   -6.2711    0.0000 C   0  0  0  0  0  0  0  0  0  0  0  0
    3.1399   -5.2674    0.0000 C   0  0  0  0  0  0  0  0  0  0  0  0
    1.5000    0.0000    0.0000 C   0  0  0  0  0  0  0  0  0  0  0  0
    0.7500    1.2990    0.0000 C   0  0  0  0  0  0  0  0  0  0  0  0
   -0.7500    1.2990    0.0000 C   0  0  0  0  0  0  0  0  0  0  0  0
   -1.5000    0.0000    0.0000 C   0  0  0  0  0  0  0  0  0  0  0  0
  1  2  1  0
  2  3  1  0
  2  4  1  0
  2  5  1  0
  5  6  1  0
  6  7  1  0
  7  8  1  0
  8  9  1  0
  8 10  1  0
 10 11  1  0
 11 12  1  0
 12 13  1  0
 13 14  1  0
 14 15  1  0
 15 16  1  0
 16 17  1  0
 10 18  1  0
 18 19  1  0
 19 20  1  0
 20 21  1  0
 21  5  1  0
 21  8  1  0
 17 13  1  0
M  END
>  <Title>  (100) 
idAAKJgen6

$$$$

     RDKit          2D

 48 52  0  0  0  0  0  0  0  0999 V2000
    3.2286   -1.5000    0.0000 C   0  0  0  0  0  0  0  0  0  0  0  0
    3.2286    0.0000    0.0000 C   0  0  0  0  0  0  0  0  0  0  0  0
    3.5915    1.4554    0.0000 C   0  0  0  0  0  0  0  0  0  0  0  0
    4.7174   -0.1828    0.0000 C   0  0  0  0  0  0  0  0  0  0  0  0
    1.7286    0.0000    0.0000 C   0  0  0  0  0  0  0  0  0  0  0  0
    1.0777    1.3515    0.0000 C   0  0  0  0  0  0  0  0  0  0  0  0
   -0.3846    1.6852    0.0000 C   0  0  0  0  0  0  0  0  0  0  0  0
   -1.5574    0.7500    0.0000 C   0  0  0  0  0  0  0  0  0  0  0  0
   -1.5574   -0.7500    0.0000 C   0  0  0  0  0  0  0  0  0  0  0  0
   -0.3846   -1.6852    0.0000 C   0  0  0  0  0  0  0  0  0  0  0  0
    1.0777   -1.3515    0.0000 C   0  0  0  0  0  0  0  0  0  0  0  0
   -0.3846   -0.1852    0.0000 C   0  0  0  0  0  0  0  0  0  0  0  0
    0.9668    0.4656    0.0000 C   0  0  0  0  0  0  0  0  0  0  0  0
    1.7145    0.1893    0.0000 O   0  0  0  0  0  0  0  0  0  0  0  0
    1.0789    1.9614    0.0000 N   0  0  0  0  0  0  0  0  0  0  0  0
    2.4304    2.6122    0.0000 C   0  0  0  0  0  0  0  0  0  0  0  0
    2.5425    4.1080    0.0000 C   0  0  0  0  0  0  0  0  0  0  0  0
    3.8939    4.7589    0.0000 C   0  0  0  0  0  0  0  0  0  0  0  0
    5.1333    3.9139    0.0000 C   0  0  0  0  0  0  0  0  0  0  0  0
    6.4847    4.5647    0.0000 C   0  0  0  0  0  0  0  0  0  0  0  0
    6.5968    6.0605    0.0000 C   0  0  0  0  0  0  0  0  0  0  0  0
    5.3575    6.9055    0.0000 C   0  0  0  0  0  0  0  0  0  0  0  0
    4.0060    6.2547    0.0000 C   0  0  0  0  0  0  0  0  0  0  0  0
    3.6697    1.7672    0.0000 C   0  0  0  0  0  0  0  0  0  0  0  0
    3.9229    0.2888    0.0000 O   0  0  0  0  0  0  0  0  0  0  0  0
    5.0212    2.4181    0.0000 N   0  0  0  0  0  0  0  0  0  0  0  0
    6.2605    1.5731    0.0000 C   0  0  0  0  0  0  0  0  0  0  0  0
    7.6120    2.2239    0.0000 C   0  0  0  0  0  0  0  0  0  0  0  0
    8.8513    1.3789    0.0000 C   0  0  0  0  0  0  0  0  0  0  0  0
    8.7392   -0.1169    0.0000 C   0  0  0  0  0  0  0  0  0  0  0  0
    9.9786   -0.9619    0.0000 C   0  0  0  0  0  0  0  0  0  0  0  0
   11.3301   -0.3110    0.0000 C   0  0  0  0  0  0  0  0  0  0  0  0
   11.4422    1.1848    0.0000 C   0  0  0  0  0  0  0  0  0  0  0  0
   10.2028    2.0298    0.0000 C   0  0  0  0  0  0  0  0  0  0  0  0
    6.1484    0.0773    0.0000 C   0  0  0  0  0  0  0  0  0  0  0  0
    4.8864   -0.7334    0.0000 O   0  0  0  0  0  0  0  0  0  0  0  0
    7.3878   -0.7677    0.0000 N   0  0  0  0  0  0  0  0  0  0  0  0
    7.2757   -2.2635    0.0000 C   0  0  0  0  0  0  0  0  0  0  0  0
    8.5151   -3.1085    0.0000 C   0  0  0  0  0  0  0  0  0  0  0  0
    8.4030   -4.6043    0.0000 C   0  0  0  0  0  0  0  0  0  0  0  0
    7.0515   -5.2551    0.0000 C   0  0  0  0  0  0  0  0  0  0  0  0
    6.9394   -6.7509    0.0000 C   0  0  0  0  0  0  0  0  0  0  0  0
    8.1788   -7.5959    0.0000 C   0  0  0  0  0  0  0  0  0  0  0  0
    9.5302   -6.9451    0.0000 C   0  0  0  0  0  0  0  0  0  0  0  0
    9.6423   -5.4493    0.0000 C   0  0  0  0  0  0  0  0  0  0  0  0
    5.9242   -2.9143    0.0000 C   0  0  0  0  0  0  0  0  0  0  0  0
    4.6849   -2.0693    0.0000 O   0  0  0  0  0  0  0  0  0  0  0  0
    5.8121   -4.4101    0.0000 O   0  0  0  0  0  0  0  0  0  0  0  0
  1  2  1  0
  2  3  1  0
  2  4  1  0
  2  5  1  0
  5  6  1  0
  6  7  1  0
  7  8  1  0
  8  9  1  0
  9 10  1  0
 10 11  1  0
 10 12  1  0
 12 13  1  0
 13 14  2  0
 13 15  1  0
 15 16  1  0
 16 17  1  0
 17 18  1  0
 18 19  2  0
 19 20  1  0
 20 21  2  0
 21 22  1  0
 22 23  2  0
 16 24  1  0
 24 25  2  0
 24 26  1  0
 26 27  1  0
 27 28  1  0
 28 29  1  0
 29 30  2  0
 30 31  1  0
 31 32  2  0
 32 33  1  0
 33 34  2  0
 27 35  1  0
 35 36  2  0
 35 37  1  0
 37 38  1  0
 38 39  1  0
 39 40  1  0
 40 41  2  0
 41 42  1  0
 42 43  2  0
 43 44  1  0
 44 45  2  0
 38 46  1  0
 46 47  2  0
 46 48  1  0
 11  5  1  0
 23 18  1  0
 34 29  1  0
 45 40  1  0
 12  8  1  0
M  END
>  <Title>  (101) 
idAAKKgen6

$$$$

     RDKit          2D

 51 56  0  0  0  0  0  0  0  0999 V2000
    1.0866   -4.0400    0.0000 C   0  0  0  0  0  0  0  0  0  0  0  0
    1.5000   -2.5981    0.0000 C   0  0  0  0  0  0  0  0  0  0  0  0
    3.0000   -2.5981    0.0000 C   0  0  0  0  0  0  0  0  0  0  0  0
    3.7500   -3.8971    0.0000 C   0  0  0  0  0  0  0  0  0  0  0  0
    5.2500   -3.8971    0.0000 C   0  0  0  0  0  0  0  0  0  0  0  0
    6.0000   -2.5981    0.0000 C   0  0  0  0  0  0  0  0  0  0  0  0
    5.2500   -1.2990    0.0000 C   0  0  0  0  0  0  0  0  0  0  0  0
    3.7500   -1.2990    0.0000 C   0  0  0  0  0  0  0  0  0  0  0  0
    0.7500   -1.2990    0.0000 C   0  0  0  0  0  0  0  0  0  0  0  0
    1.5000    0.0000    0.0000 C   0  0  0  0  0  0  0  0  0  0  0  0
    0.7500    1.2990    0.0000 C   0  0  0  0  0  0  0  0  0  0  0  0
   -0.7500    1.2990    0.0000 C   0  0  0  0  0  0  0  0  0  0  0  0
   -1.5000    0.0000    0.0000 C   0  0  0  0  0  0  0  0  0  0  0  0
   -0.7500   -1.2990    0.0000 C   0  0  0  0  0  0  0  0  0  0  0  0
   -0.0000   -0.0000    0.0000 C   0  0  0  0  0  0  0  0  0  0  0  0
    0.7500   -1.2990    0.0000 C   0  0  0  0  0  0  0  0  0  0  0  0
    2.2500   -1.2990    0.0000 O   0  0  0  0  0  0  0  0  0  0  0  0
   -0.0000   -2.5981    0.0000 N   0  0  0  0  0  0  0  0  0  0  0  0
    0.7500   -3.8971    0.0000 C   0  0  0  0  0  0  0  0  0  0  0  0
   -0.0000   -5.1962    0.0000 C   0  0  0  0  0  0  0  0  0  0  0  0
    0.7500   -6.4952    0.0000 C   0  0  0  0  0  0  0  0  0  0  0  0
   -0.0000   -7.7942    0.0000 C   0  0  0  0  0  0  0  0  0  0  0  0
    0.7500   -9.0933    0.0000 C   0  0  0  0  0  0  0  0  0  0  0  0
    2.2500   -9.0933    0.0000 C   0  0  0  0  0  0  0  0  0  0  0  0
    3.0000   -7.7942    0.0000 C   0  0  0  0  0  0  0  0  0  0  0  0
    2.2500   -6.4952    0.0000 C   0  0  0  0  0  0  0  0  0  0  0  0
    2.2500   -3.8971    0.0000 C   0  0  0  0  0  0  0  0  0  0  0  0
    3.2920   -2.8182    0.0000 O   0  0  0  0  0  0  0  0  0  0  0  0
    3.0000   -5.1962    0.0000 N   0  0  0  0  0  0  0  0  0  0  0  0
    4.5000   -5.1962    0.0000 C   0  0  0  0  0  0  0  0  0  0  0  0
    5.2500   -6.4952    0.0000 C   0  0  0  0  0  0  0  0  0  0  0  0
    6.7500   -6.4952    0.0000 C   0  0  0  0  0  0  0  0  0  0  0  0
    7.5000   -7.7942    0.0000 C   0  0  0  0  0  0  0  0  0  0  0  0
    9.0000   -7.7942    0.0000 C   0  0  0  0  0  0  0  0  0  0  0  0
    9.7500   -6.4952    0.0000 C   0  0  0  0  0  0  0  0  0  0  0  0
    9.0000   -5.1962    0.0000 C   0  0  0  0  0  0  0  0  0  0  0  0
    7.5000   -5.1962    0.0000 C   0  0  0  0  0  0  0  0  0  0  0  0
    5.2500   -3.8971    0.0000 C   0  0  0  0  0  0  0  0  0  0  0  0
    4.5000   -2.5981    0.0000 O   0  0  0  0  0  0  0  0  0  0  0  0
    6.7500   -3.8971    0.0000 N   0  0  0  0  0  0  0  0  0  0  0  0
    7.5000   -2.5981    0.0000 C   0  0  0  0  0  0  0  0  0  0  0  0
    9.0000   -2.5981    0.0000 C   0  0  0  0  0  0  0  0  0  0  0  0
    9.7500   -1.2990    0.0000 C   0  0  0  0  0  0  0  0  0  0  0  0
   11.2500   -1.2990    0.0000 C   0  0  0  0  0  0  0  0  0  0  0  0
   12.0000   -0.0000    0.0000 C   0  0  0  0  0  0  0  0  0  0  0  0
   11.2500    1.2990    0.0000 C   0  0  0  0  0  0  0  0  0  0  0  0
    9.7500    1.2990    0.0000 C   0  0  0  0  0  0  0  0  0  0  0  0
    9.0000   -0.0000    0.0000 C   0  0  0  0  0  0  0  0  0  0  0  0
    6.7500   -1.2990    0.0000 C   0  0  0  0  0  0  0  0  0  0  0  0
    5.2946   -1.6620    0.0000 O   0  0  0  0  0  0  0  0  0  0  0  0
    7.5000   -0.0000    0.0000 O   0  0  0  0  0  0  0  0  0  0  0  0
  1  2  1  0
  2  3  1  0
  3  4  2  0
  4  5  1  0
  5  6  2  0
  6  7  1  0
  7  8  2  0
  2  9  1  0
  9 10  1  0
 10 11  1  0
 11 12  1  0
 12 13  1  0
 13 14  1  0
 13 15  1  0
 15 16  1  0
 16 17  2  0
 16 18  1  0
 18 19  1  0
 19 20  1  0
 20 21  1  0
 21 22  2  0
 22 23  1  0
 23 24  2  0
 24 25  1  0
 25 26  2  0
 19 27  1  0
 27 28  2  0
 27 29  1  0
 29 30  1  0
 30 31  1  0
 31 32  1  0
 32 33  2  0
 33 34  1  0
 34 35  2  0
 35 36  1  0
 36 37  2  0
 30 38  1  0
 38 39  2  0
 38 40  1  0
 40 41  1  0
 41 42  1  0
 42 43  1  0
 43 44  2  0
 44 45  1  0
 45 46  2  0
 46 47  1  0
 47 48  2  0
 41 49  1  0
 49 50  2  0
 49 51  1  0
  8  3  1  0
 14  9  1  0
 26 21  1  0
 37 32  1  0
 48 43  1  0
 15 11  1  0
M  END
>  <Title>  (102) 
idAAKLgen6

$$$$

     RDKit          2D

 63 70  0  0  0  0  0  0  0  0999 V2000
    1.4650    3.9205    0.0000 O   0  0  0  0  0  0  0  0  0  0  0  0
    2.0130    2.5242    0.0000 C   0  0  0  0  0  0  0  0  0  0  0  0
    3.4962    2.3006    0.0000 N   0  0  0  0  0  0  0  0  0  0  0  0
    4.4315    3.4734    0.0000 C   0  0  0  0  0  0  0  0  0  0  0  0
    5.9147    3.2498    0.0000 C   0  0  0  0  0  0  0  0  0  0  0  0
    6.8499    4.4226    0.0000 C   0  0  0  0  0  0  0  0  0  0  0  0
    7.3770    5.8269    0.0000 C   0  0  0  0  0  0  0  0  0  0  0  0
    6.2043    6.7622    0.0000 C   0  0  0  0  0  0  0  0  0  0  0  0
    4.9524    5.9358    0.0000 C   0  0  0  0  0  0  0  0  0  0  0  0
    3.8835    4.8697    0.0000 C   0  0  0  0  0  0  0  0  0  0  0  0
    5.3515    4.4899    0.0000 N   0  0  0  0  0  0  0  0  0  0  0  0
    4.4162    3.3171    0.0000 C   0  0  0  0  0  0  0  0  0  0  0  0
    4.9642    1.9208    0.0000 C   0  0  0  0  0  0  0  0  0  0  0  0
    4.0290    0.7481    0.0000 C   0  0  0  0  0  0  0  0  0  0  0  0
    2.5458    0.9716    0.0000 C   0  0  0  0  0  0  0  0  0  0  0  0
    1.6105   -0.2011    0.0000 C   0  0  0  0  0  0  0  0  0  0  0  0
    2.1585   -1.5974    0.0000 C   0  0  0  0  0  0  0  0  0  0  0  0
    3.6418   -1.8210    0.0000 C   0  0  0  0  0  0  0  0  0  0  0  0
    4.5770   -0.6483    0.0000 N   0  0  0  0  0  0  0  0  0  0  0  0
    1.0777    1.3515    0.0000 C   0  0  0  0  0  0  0  0  0  0  0  0
    1.7286    0.0000    0.0000 C   0  0  0  0  0  0  0  0  0  0  0  0
    1.0777   -1.3515    0.0000 O   0  0  0  0  0  0  0  0  0  0  0  0
   -0.3846   -1.6852    0.0000 C   0  0  0  0  0  0  0  0  0  0  0  0
   -1.5574   -0.7500    0.0000 C   0  0  0  0  0  0  0  0  0  0  0  0
   -1.5574    0.7500    0.0000 C   0  0  0  0  0  0  0  0  0  0  0  0
   -0.3846    1.6852    0.0000 C   0  0  0  0  0  0  0  0  0  0  0  0
   -0.3846   -0.1852    0.0000 C   0  0  0  0  0  0  0  0  0  0  0  0
    0.9668    0.4656    0.0000 C   0  0  0  0  0  0  0  0  0  0  0  0
    1.4375    1.8898    0.0000 O   0  0  0  0  0  0  0  0  0  0  0  0
    2.2062   -0.3794    0.0000 N   0  0  0  0  0  0  0  0  0  0  0  0
    3.5576    0.2714    0.0000 C   0  0  0  0  0  0  0  0  0  0  0  0
    4.7970   -0.5735    0.0000 C   0  0  0  0  0  0  0  0  0  0  0  0
    6.1484    0.0773    0.0000 C   0  0  0  0  0  0  0  0  0  0  0  0
    7.3878   -0.7677    0.0000 C   0  0  0  0  0  0  0  0  0  0  0  0
    8.7392   -0.1169    0.0000 C   0  0  0  0  0  0  0  0  0  0  0  0
    8.8513    1.3789    0.0000 C   0  0  0  0  0  0  0  0  0  0  0  0
    7.6120    2.2239    0.0000 C   0  0  0  0  0  0  0  0  0  0  0  0
    6.2605    1.5731    0.0000 C   0  0  0  0  0  0  0  0  0  0  0  0
    3.6697    1.7672    0.0000 C   0  0  0  0  0  0  0  0  0  0  0  0
    2.6717    2.8870    0.0000 O   0  0  0  0  0  0  0  0  0  0  0  0
    5.0212    2.4181    0.0000 N   0  0  0  0  0  0  0  0  0  0  0  0
    5.1333    3.9139    0.0000 C   0  0  0  0  0  0  0  0  0  0  0  0
    6.4847    4.5647    0.0000 C   0  0  0  0  0  0  0  0  0  0  0  0
    6.5968    6.0605    0.0000 C   0  0  0  0  0  0  0  0  0  0  0  0
    7.9483    6.7113    0.0000 C   0  0  0  0  0  0  0  0  0  0  0  0
    8.0604    8.2071    0.0000 C   0  0  0  0  0  0  0  0  0  0  0  0
    6.8210    9.0521    0.0000 C   0  0  0  0  0  0  0  0  0  0  0  0
    5.4696    8.4013    0.0000 C   0  0  0  0  0  0  0  0  0  0  0  0
    5.3575    6.9055    0.0000 C   0  0  0  0  0  0  0  0  0  0  0  0
    3.8939    4.7589    0.0000 C   0  0  0  0  0  0  0  0  0  0  0  0
    2.5425    4.1080    0.0000 O   0  0  0  0  0  0  0  0  0  0  0  0
    4.0060    6.2547    0.0000 N   0  0  0  0  0  0  0  0  0  0  0  0
    2.7666    7.0996    0.0000 C   0  0  0  0  0  0  0  0  0  0  0  0
    2.8787    8.5954    0.0000 C   0  0  0  0  0  0  0  0  0  0  0  0
    1.6394    9.4404    0.0000 C   0  0  0  0  0  0  0  0  0  0  0  0
    1.7515   10.9362    0.0000 C   0  0  0  0  0  0  0  0  0  0  0  0
    0.5121   11.7812    0.0000 C   0  0  0  0  0  0  0  0  0  0  0  0
   -0.8393   11.1304    0.0000 C   0  0  0  0  0  0  0  0  0  0  0  0
   -0.9514    9.6346    0.0000 C   0  0  0  0  0  0  0  0  0  0  0  0
    0.2879    8.7896    0.0000 C   0  0  0  0  0  0  0  0  0  0  0  0
    1.4152    6.4488    0.0000 C   0  0  0  0  0  0  0  0  0  0  0  0
    1.3031    4.9530    0.0000 O   0  0  0  0  0  0  0  0  0  0  0  0
    0.1758    7.2938    0.0000 O   0  0  0  0  0  0  0  0  0  0  0  0
  1  2  2  0
  2  3  1  0
  3  4  1  0
  4  5  1  0
  5  6  1  0
  6  7  1  0
  7  8  1  0
  8  9  1  0
  9 10  1  0
  9 11  1  0
 11 12  1  0
 12 13  1  0
 13 14  1  0
 14 15  2  0
 15 16  1  0
 16 17  2  0
 17 18  1  0
 18 19  2  0
  2 20  1  0
 20 21  1  0
 21 22  1  0
 22 23  1  0
 23 24  1  0
 24 25  1  0
 25 26  1  0
 25 27  1  0
 27 28  1  0
 28 29  2  0
 28 30  1  0
 30 31  1  0
 31 32  1  0
 32 33  1  0
 33 34  2  0
 34 35  1  0
 35 36  2  0
 36 37  1  0
 37 38  2  0
 31 39  1  0
 39 40  2  0
 39 41  1  0
 41 42  1  0
 42 43  1  0
 43 44  1  0
 44 45  2  0
 45 46  1  0
 46 47  2  0
 47 48  1  0
 48 49  2  0
 42 50  1  0
 50 51  2  0
 50 52  1  0
 52 53  1  0
 53 54  1  0
 54 55  1  0
 55 56  2  0
 56 57  1  0
 57 58  2  0
 58 59  1  0
 59 60  2  0
 53 61  1  0
 61 62  2  0
 61 63  1  0
 10  4  1  0
 19 14  1  0
 26 20  1  0
 38 33  1  0
 49 44  1  0
 60 55  1  0
 11  6  1  0
 27 23  1  0
M  END
>  <Title>  (103) 
idAAKMgen6

$$$$

     RDKit          2D

 27 30  0  0  0  0  0  0  0  0999 V2000
   -7.3572    2.0282    0.0000 C   0  0  0  0  0  0  0  0  0  0  0  0
   -5.9869    2.6383    0.0000 O   0  0  0  0  0  0  0  0  0  0  0  0
   -5.8301    4.1301    0.0000 C   0  0  0  0  0  0  0  0  0  0  0  0
   -7.0436    5.0118    0.0000 C   0  0  0  0  0  0  0  0  0  0  0  0
   -6.8869    6.5036    0.0000 C   0  0  0  0  0  0  0  0  0  0  0  0
   -5.5165    7.1137    0.0000 C   0  0  0  0  0  0  0  0  0  0  0  0
   -4.3030    6.2320    0.0000 C   0  0  0  0  0  0  0  0  0  0  0  0
   -4.4598    4.7402    0.0000 C   0  0  0  0  0  0  0  0  0  0  0  0
   -3.2463    3.8586    0.0000 C   0  0  0  0  0  0  0  0  0  0  0  0
   -1.8760    4.4687    0.0000 O   0  0  0  0  0  0  0  0  0  0  0  0
   -3.4031    2.3668    0.0000 N   0  0  0  0  0  0  0  0  0  0  0  0
   -2.1895    1.4851    0.0000 C   0  0  0  0  0  0  0  0  0  0  0  0
   -0.8192    2.0952    0.0000 C   0  0  0  0  0  0  0  0  0  0  0  0
    0.3943    1.2135    0.0000 C   0  0  0  0  0  0  0  0  0  0  0  0
    1.2760    0.0000    0.0000 C   0  0  0  0  0  0  0  0  0  0  0  0
    0.3943   -1.2135    0.0000 C   0  0  0  0  0  0  0  0  0  0  0  0
   -1.0323   -0.7500    0.0000 C   0  0  0  0  0  0  0  0  0  0  0  0
   -2.3463   -0.0067    0.0000 C   0  0  0  0  0  0  0  0  0  0  0  0
   -1.0323    0.7500    0.0000 N   0  0  0  0  0  0  0  0  0  0  0  0
   -2.2458    1.6317    0.0000 C   0  0  0  0  0  0  0  0  0  0  0  0
   -2.0890    3.1235    0.0000 C   0  0  0  0  0  0  0  0  0  0  0  0
   -3.3025    4.0051    0.0000 C   0  0  0  0  0  0  0  0  0  0  0  0
   -3.1458    5.4969    0.0000 C   0  0  0  0  0  0  0  0  0  0  0  0
   -4.3593    6.3786    0.0000 C   0  0  0  0  0  0  0  0  0  0  0  0
   -5.7296    5.7685    0.0000 C   0  0  0  0  0  0  0  0  0  0  0  0
   -5.8864    4.2767    0.0000 C   0  0  0  0  0  0  0  0  0  0  0  0
   -4.6729    3.3950    0.0000 C   0  0  0  0  0  0  0  0  0  0  0  0
  1  2  1  0
  2  3  1  0
  3  4  2  0
  4  5  1  0
  5  6  2  0
  6  7  1  0
  7  8  2  0
  8  9  1  0
  9 10  2  0
  9 11  1  0
 11 12  1  0
 12 13  1  0
 13 14  1  0
 14 15  1  0
 15 16  1  0
 16 17  1  0
 17 18  1  0
 17 19  1  0
 19 20  1  0
 20 21  1  0
 21 22  1  0
 22 23  2  0
 23 24  1  0
 24 25  2  0
 25 26  1  0
 26 27  2  0
  8  3  1  0
 18 12  1  0
 27 22  1  0
 19 14  1  0
M  END
>  <Title>  (104) 
idAAKNgen6

$$$$

     RDKit          2D

 74 82  0  0  0  0  0  0  0  0999 V2000
   -1.9605    4.6312    0.0000 O   0  0  0  0  0  0  0  0  0  0  0  0
   -3.2463    3.8586    0.0000 C   0  0  0  0  0  0  0  0  0  0  0  0
   -3.4031    2.3668    0.0000 N   0  0  0  0  0  0  0  0  0  0  0  0
   -2.1895    1.4851    0.0000 C   0  0  0  0  0  0  0  0  0  0  0  0
   -0.8192    2.0952    0.0000 C   0  0  0  0  0  0  0  0  0  0  0  0
    0.3943    1.2135    0.0000 C   0  0  0  0  0  0  0  0  0  0  0  0
    1.2760    0.0000    0.0000 C   0  0  0  0  0  0  0  0  0  0  0  0
    0.3943   -1.2135    0.0000 C   0  0  0  0  0  0  0  0  0  0  0  0
   -1.0323   -0.7500    0.0000 C   0  0  0  0  0  0  0  0  0  0  0  0
   -2.3463   -0.0067    0.0000 C   0  0  0  0  0  0  0  0  0  0  0  0
   -1.0323    0.7500    0.0000 N   0  0  0  0  0  0  0  0  0  0  0  0
   -2.2458    1.6317    0.0000 C   0  0  0  0  0  0  0  0  0  0  0  0
   -2.0890    3.1235    0.0000 C   0  0  0  0  0  0  0  0  0  0  0  0
   -3.3025    4.0051    0.0000 C   0  0  0  0  0  0  0  0  0  0  0  0
   -3.1458    5.4969    0.0000 C   0  0  0  0  0  0  0  0  0  0  0  0
   -4.3593    6.3786    0.0000 C   0  0  0  0  0  0  0  0  0  0  0  0
   -5.7296    5.7685    0.0000 C   0  0  0  0  0  0  0  0  0  0  0  0
   -5.8864    4.2767    0.0000 C   0  0  0  0  0  0  0  0  0  0  0  0
   -4.6729    3.3950    0.0000 C   0  0  0  0  0  0  0  0  0  0  0  0
   -4.4598    4.7402    0.0000 C   0  0  0  0  0  0  0  0  0  0  0  0
   -4.3030    6.2320    0.0000 C   0  0  0  0  0  0  0  0  0  0  0  0
   -5.5165    7.1137    0.0000 C   0  0  0  0  0  0  0  0  0  0  0  0
   -6.9431    7.5772    0.0000 C   0  0  0  0  0  0  0  0  0  0  0  0
   -7.8248    6.3637    0.0000 C   0  0  0  0  0  0  0  0  0  0  0  0
   -6.9431    5.1502    0.0000 C   0  0  0  0  0  0  0  0  0  0  0  0
   -5.8301    4.1301    0.0000 C   0  0  0  0  0  0  0  0  0  0  0  0
   -5.5165    5.6137    0.0000 C   0  0  0  0  0  0  0  0  0  0  0  0
   -4.3030    4.7320    0.0000 C   0  0  0  0  0  0  0  0  0  0  0  0
   -3.1210    5.6556    0.0000 O   0  0  0  0  0  0  0  0  0  0  0  0
   -4.4598    3.2402    0.0000 N   0  0  0  0  0  0  0  0  0  0  0  0
   -3.2463    2.3586    0.0000 C   0  0  0  0  0  0  0  0  0  0  0  0
   -3.4031    0.8668    0.0000 C   0  0  0  0  0  0  0  0  0  0  0  0
   -2.1895   -0.0149    0.0000 C   0  0  0  0  0  0  0  0  0  0  0  0
   -2.3463   -1.5067    0.0000 C   0  0  0  0  0  0  0  0  0  0  0  0
   -1.1328   -2.3884    0.0000 C   0  0  0  0  0  0  0  0  0  0  0  0
    0.2375   -1.7783    0.0000 C   0  0  0  0  0  0  0  0  0  0  0  0
    0.3943   -0.2865    0.0000 C   0  0  0  0  0  0  0  0  0  0  0  0
   -0.8192    0.5952    0.0000 C   0  0  0  0  0  0  0  0  0  0  0  0
   -1.8760    2.9687    0.0000 C   0  0  0  0  0  0  0  0  0  0  0  0
   -1.5385    4.4302    0.0000 O   0  0  0  0  0  0  0  0  0  0  0  0
   -0.6624    2.0870    0.0000 N   0  0  0  0  0  0  0  0  0  0  0  0
    0.7079    2.6971    0.0000 C   0  0  0  0  0  0  0  0  0  0  0  0
    1.9214    1.8154    0.0000 C   0  0  0  0  0  0  0  0  0  0  0  0
    3.2917    2.4255    0.0000 C   0  0  0  0  0  0  0  0  0  0  0  0
    4.5053    1.5438    0.0000 C   0  0  0  0  0  0  0  0  0  0  0  0
    5.8756    2.1539    0.0000 C   0  0  0  0  0  0  0  0  0  0  0  0
    6.0324    3.6457    0.0000 C   0  0  0  0  0  0  0  0  0  0  0  0
    4.8188    4.5274    0.0000 C   0  0  0  0  0  0  0  0  0  0  0  0
    3.4485    3.9173    0.0000 C   0  0  0  0  0  0  0  0  0  0  0  0
    0.8647    4.1889    0.0000 C   0  0  0  0  0  0  0  0  0  0  0  0
   -0.3488    5.0706    0.0000 O   0  0  0  0  0  0  0  0  0  0  0  0
    2.2350    4.7990    0.0000 N   0  0  0  0  0  0  0  0  0  0  0  0
    2.3918    6.2908    0.0000 C   0  0  0  0  0  0  0  0  0  0  0  0
    3.7621    6.9009    0.0000 C   0  0  0  0  0  0  0  0  0  0  0  0
    3.9189    8.3926    0.0000 C   0  0  0  0  0  0  0  0  0  0  0  0
    5.2892    9.0028    0.0000 C   0  0  0  0  0  0  0  0  0  0  0  0
    5.4460   10.4945    0.0000 C   0  0  0  0  0  0  0  0  0  0  0  0
    4.2325   11.3762    0.0000 C   0  0  0  0  0  0  0  0  0  0  0  0
    2.8622   10.7661    0.0000 C   0  0  0  0  0  0  0  0  0  0  0  0
    2.7054    9.2743    0.0000 C   0  0  0  0  0  0  0  0  0  0  0  0
    1.1783    7.1724    0.0000 C   0  0  0  0  0  0  0  0  0  0  0  0
   -0.1921    6.5623    0.0000 O   0  0  0  0  0  0  0  0  0  0  0  0
    1.3351    8.6642    0.0000 N   0  0  0  0  0  0  0  0  0  0  0  0
    0.1215    9.5459    0.0000 C   0  0  0  0  0  0  0  0  0  0  0  0
    0.2783   11.0377    0.0000 C   0  0  0  0  0  0  0  0  0  0  0  0
   -0.9352   11.9194    0.0000 C   0  0  0  0  0  0  0  0  0  0  0  0
   -0.7784   13.4111    0.0000 C   0  0  0  0  0  0  0  0  0  0  0  0
   -1.9919   14.2928    0.0000 C   0  0  0  0  0  0  0  0  0  0  0  0
   -3.3623   13.6827    0.0000 C   0  0  0  0  0  0  0  0  0  0  0  0
   -3.5190   12.1909    0.0000 C   0  0  0  0  0  0  0  0  0  0  0  0
   -2.3055   11.3093    0.0000 C   0  0  0  0  0  0  0  0  0  0  0  0
   -1.2488    8.9358    0.0000 C   0  0  0  0  0  0  0  0  0  0  0  0
   -1.4056    7.4440    0.0000 O   0  0  0  0  0  0  0  0  0  0  0  0
   -2.4623    9.8175    0.0000 O   0  0  0  0  0  0  0  0  0  0  0  0
  1  2  2  0
  2  3  1  0
  3  4  1  0
  4  5  1  0
  5  6  1  0
  6  7  1  0
  7  8  1  0
  8  9  1  0
  9 10  1  0
  9 11  1  0
 11 12  1  0
 12 13  1  0
 13 14  1  0
 14 15  2  0
 15 16  1  0
 16 17  2  0
 17 18  1  0
 18 19  2  0
  2 20  1  0
 20 21  1  0
 21 22  1  0
 22 23  1  0
 23 24  1  0
 24 25  1  0
 25 26  1  0
 25 27  1  0
 27 28  1  0
 28 29  2  0
 28 30  1  0
 30 31  1  0
 31 32  1  0
 32 33  1  0
 33 34  2  0
 34 35  1  0
 35 36  2  0
 36 37  1  0
 37 38  2  0
 31 39  1  0
 39 40  2  0
 39 41  1  0
 41 42  1  0
 42 43  1  0
 43 44  1  0
 44 45  2  0
 45 46  1  0
 46 47  2  0
 47 48  1  0
 48 49  2  0
 42 50  1  0
 50 51  2  0
 50 52  1  0
 52 53  1  0
 53 54  1  0
 54 55  1  0
 55 56  2  0
 56 57  1  0
 57 58  2  0
 58 59  1  0
 59 60  2  0
 53 61  1  0
 61 62  2  0
 61 63  1  0
 63 64  1  0
 64 65  1  0
 65 66  1  0
 66 67  2  0
 67 68  1  0
 68 69  2  0
 69 70  1  0
 70 71  2  0
 64 72  1  0
 72 73  2  0
 72 74  1  0
 10  4  1  0
 19 14  1  0
 26 20  1  0
 38 33  1  0
 49 44  1  0
 60 55  1  0
 71 66  1  0
 11  6  1  0
 27 22  1  0
M  END
>  <Title>  (105) 
idAAKOgen6

$$$$

     RDKit          2D

 65 70  0  0  0  0  0  0  0  0999 V2000
   -5.4524    4.2963    0.0000 C   0  0  0  0  0  0  0  0  0  0  0  0
   -4.9720    2.8753    0.0000 C   0  0  0  0  0  0  0  0  0  0  0  0
   -4.8497    1.3803    0.0000 C   0  0  0  0  0  0  0  0  0  0  0  0
   -6.4670    2.7530    0.0000 C   0  0  0  0  0  0  0  0  0  0  0  0
   -3.4770    2.9976    0.0000 C   0  0  0  0  0  0  0  0  0  0  0  0
   -3.1731    4.4665    0.0000 C   0  0  0  0  0  0  0  0  0  0  0  0
   -2.1233    5.5379    0.0000 C   0  0  0  0  0  0  0  0  0  0  0  0
   -0.6609    5.8717    0.0000 C   0  0  0  0  0  0  0  0  0  0  0  0
   -0.5692    7.3689    0.0000 C   0  0  0  0  0  0  0  0  0  0  0  0
   -1.8783    8.1011    0.0000 C   0  0  0  0  0  0  0  0  0  0  0  0
   -2.1220    9.5812    0.0000 C   0  0  0  0  0  0  0  0  0  0  0  0
   -1.1168   10.6945    0.0000 C   0  0  0  0  0  0  0  0  0  0  0  0
    0.3804   10.6028    0.0000 C   0  0  0  0  0  0  0  0  0  0  0  0
    1.2421    9.3750    0.0000 C   0  0  0  0  0  0  0  0  0  0  0  0
    0.8195    7.9358    0.0000 C   0  0  0  0  0  0  0  0  0  0  0  0
    2.3167    7.8441    0.0000 C   0  0  0  0  0  0  0  0  0  0  0  0
    1.1355    7.2039    0.0000 C   0  0  0  0  0  0  0  0  0  0  0  0
    0.7498    5.3618    0.0000 C   0  0  0  0  0  0  0  0  0  0  0  0
    1.6609    4.1702    0.0000 C   0  0  0  0  0  0  0  0  0  0  0  0
    1.7832    2.6752    0.0000 C   0  0  0  0  0  0  0  0  0  0  0  0
    1.0777    1.3515    0.0000 C   0  0  0  0  0  0  0  0  0  0  0  0
    1.4092    2.0764    0.0000 C   0  0  0  0  0  0  0  0  0  0  0  0
    1.7286    0.0000    0.0000 C   0  0  0  0  0  0  0  0  0  0  0  0
    1.0777   -1.3515    0.0000 C   0  0  0  0  0  0  0  0  0  0  0  0
   -0.3846   -1.6852    0.0000 C   0  0  0  0  0  0  0  0  0  0  0  0
   -1.5574   -0.7500    0.0000 C   0  0  0  0  0  0  0  0  0  0  0  0
   -1.5574    0.7500    0.0000 C   0  0  0  0  0  0  0  0  0  0  0  0
   -2.9385    1.5976    0.0000 C   0  0  0  0  0  0  0  0  0  0  0  0
   -0.3846    1.6852    0.0000 C   0  0  0  0  0  0  0  0  0  0  0  0
   -0.7184    3.1476    0.0000 C   0  0  0  0  0  0  0  0  0  0  0  0
   -2.1518    3.5898    0.0000 O   0  0  0  0  0  0  0  0  0  0  0  0
    0.3812    4.1679    0.0000 N   0  0  0  0  0  0  0  0  0  0  0  0
    0.0474    5.6303    0.0000 C   0  0  0  0  0  0  0  0  0  0  0  0
    1.1469    6.6505    0.0000 C   0  0  0  0  0  0  0  0  0  0  0  0
    0.8132    8.1129    0.0000 C   0  0  0  0  0  0  0  0  0  0  0  0
    1.9127    9.1332    0.0000 C   0  0  0  0  0  0  0  0  0  0  0  0
    1.5790   10.5956    0.0000 C   0  0  0  0  0  0  0  0  0  0  0  0
    0.1456   11.0377    0.0000 C   0  0  0  0  0  0  0  0  0  0  0  0
   -0.9540   10.0175    0.0000 C   0  0  0  0  0  0  0  0  0  0  0  0
   -0.6202    8.5551    0.0000 C   0  0  0  0  0  0  0  0  0  0  0  0
   -1.3860    6.0724    0.0000 C   0  0  0  0  0  0  0  0  0  0  0  0
   -2.0637    7.4106    0.0000 O   0  0  0  0  0  0  0  0  0  0  0  0
   -2.4856    5.0522    0.0000 N   0  0  0  0  0  0  0  0  0  0  0  0
   -3.9189    5.4943    0.0000 C   0  0  0  0  0  0  0  0  0  0  0  0
   -5.0185    4.4740    0.0000 C   0  0  0  0  0  0  0  0  0  0  0  0
   -6.4519    4.9162    0.0000 C   0  0  0  0  0  0  0  0  0  0  0  0
   -6.7856    6.3785    0.0000 C   0  0  0  0  0  0  0  0  0  0  0  0
   -8.2190    6.8207    0.0000 C   0  0  0  0  0  0  0  0  0  0  0  0
   -9.3186    5.8004    0.0000 C   0  0  0  0  0  0  0  0  0  0  0  0
   -8.9848    4.3380    0.0000 C   0  0  0  0  0  0  0  0  0  0  0  0
   -7.5514    3.8959    0.0000 C   0  0  0  0  0  0  0  0  0  0  0  0
   -4.2527    6.9567    0.0000 C   0  0  0  0  0  0  0  0  0  0  0  0
   -3.1531    7.9769    0.0000 O   0  0  0  0  0  0  0  0  0  0  0  0
   -5.6861    7.3988    0.0000 N   0  0  0  0  0  0  0  0  0  0  0  0
   -6.0198    8.8612    0.0000 C   0  0  0  0  0  0  0  0  0  0  0  0
   -7.4532    9.3033    0.0000 C   0  0  0  0  0  0  0  0  0  0  0  0
   -7.7870   10.7657    0.0000 C   0  0  0  0  0  0  0  0  0  0  0  0
   -6.6874   11.7860    0.0000 C   0  0  0  0  0  0  0  0  0  0  0  0
   -7.0212   13.2484    0.0000 C   0  0  0  0  0  0  0  0  0  0  0  0
   -8.4546   13.6905    0.0000 C   0  0  0  0  0  0  0  0  0  0  0  0
   -9.5541   12.6702    0.0000 C   0  0  0  0  0  0  0  0  0  0  0  0
   -9.2203   11.2079    0.0000 C   0  0  0  0  0  0  0  0  0  0  0  0
   -4.9203    9.8815    0.0000 C   0  0  0  0  0  0  0  0  0  0  0  0
   -3.4869    9.4393    0.0000 O   0  0  0  0  0  0  0  0  0  0  0  0
   -5.2541   11.3439    0.0000 O   0  0  0  0  0  0  0  0  0  0  0  0
  1  2  1  0
  2  3  1  0
  2  4  1  0
  2  5  1  0
  5  6  1  0
  6  7  1  0
  7  8  1  0
  8  9  1  0
  9 10  1  0
 10 11  1  0
 11 12  1  0
 12 13  1  0
 13 14  1  0
 14 15  1  0
 15 16  1  0
 15 17  1  0
  8 18  1  0
 18 19  1  0
 19 20  1  0
 20 21  1  0
 21 22  1  0
 21 23  1  0
 23 24  1  0
 24 25  1  0
 25 26  1  0
 26 27  1  0
 27 28  1  0
 27 29  1  0
 29 30  1  0
 30 31  2  0
 30 32  1  0
 32 33  1  0
 33 34  1  0
 34 35  1  0
 35 36  2  0
 36 37  1  0
 37 38  2  0
 38 39  1  0
 39 40  2  0
 33 41  1  0
 41 42  2  0
 41 43  1  0
 43 44  1  0
 44 45  1  0
 45 46  1  0
 46 47  2  0
 47 48  1  0
 48 49  2  0
 49 50  1  0
 50 51  2  0
 44 52  1  0
 52 53  2  0
 52 54  1  0
 54 55  1  0
 55 56  1  0
 56 57  1  0
 57 58  2  0
 58 59  1  0
 59 60  2  0
 60 61  1  0
 61 62  2  0
 55 63  1  0
 63 64  2  0
 63 65  1  0
 28  5  1  0
 40 35  1  0
 51 46  1  0
 62 57  1  0
 15  9  1  0
 29 21  1  0
M  END
>  <Title>  (106) 
idAAKPgen6

$$$$

     RDKit          2D

 20 22  0  0  0  0  0  0  0  0999 V2000
    2.6491    0.9642    0.0000 C   0  0  0  0  0  0  0  0  0  0  0  0
    1.5000    0.0000    0.0000 C   0  0  0  0  0  0  0  0  0  0  0  0
    2.6491   -0.9642    0.0000 O   0  0  0  0  0  0  0  0  0  0  0  0
    0.7500   -1.2990    0.0000 C   0  0  0  0  0  0  0  0  0  0  0  0
   -0.7500   -1.2990    0.0000 C   0  0  0  0  0  0  0  0  0  0  0  0
   -1.5000    0.0000    0.0000 C   0  0  0  0  0  0  0  0  0  0  0  0
   -0.7500    1.2990    0.0000 C   0  0  0  0  0  0  0  0  0  0  0  0
   -2.2500    1.2990    0.0000 C   0  0  0  0  0  0  0  0  0  0  0  0
   -1.5000    2.5981    0.0000 C   0  0  0  0  0  0  0  0  0  0  0  0
   -3.0000    2.5981    0.0000 C   0  0  0  0  0  0  0  0  0  0  0  0
   -3.7500    3.8971    0.0000 C   0  0  0  0  0  0  0  0  0  0  0  0
   -5.2500    3.8971    0.0000 C   0  0  0  0  0  0  0  0  0  0  0  0
   -6.1317    2.6836    0.0000 C   0  0  0  0  0  0  0  0  0  0  0  0
   -7.5583    3.1471    0.0000 C   0  0  0  0  0  0  0  0  0  0  0  0
   -7.5583    4.6471    0.0000 C   0  0  0  0  0  0  0  0  0  0  0  0
   -6.1317    5.1106    0.0000 C   0  0  0  0  0  0  0  0  0  0  0  0
   -0.7500    3.8971    0.0000 C   0  0  0  0  0  0  0  0  0  0  0  0
    0.7500    3.8971    0.0000 C   0  0  0  0  0  0  0  0  0  0  0  0
    1.5000    2.5981    0.0000 C   0  0  0  0  0  0  0  0  0  0  0  0
    0.7500    1.2990    0.0000 C   0  0  0  0  0  0  0  0  0  0  0  0
  1  2  1  0
  2  3  1  0
  2  4  1  0
  4  5  1  0
  5  6  1  0
  6  7  1  0
  7  8  1  0
  7  9  1  0
  9 10  1  0
 10 11  1  0
 11 12  1  0
 12 13  1  0
 13 14  1  0
 14 15  1  0
 15 16  1  0
  9 17  1  0
 17 18  1  0
 18 19  1  0
 19 20  1  0
 20  2  1  0
 20  7  1  0
 16 12  1  0
M  END
>  <Title>  (107) 
idAAKQgen6

$$$$

     RDKit          2D

 33 38  0  0  0  0  0  0  0  0999 V2000
   -0.7500   -3.8971    0.0000 O   0  0  0  0  0  0  0  0  0  0  0  0
    0.7500   -3.8971    0.0000 C   0  0  0  0  0  0  0  0  0  0  0  0
    1.5000   -2.5981    0.0000 N   0  0  0  0  0  0  0  0  0  0  0  0
    0.7500   -1.2990    0.0000 C   0  0  0  0  0  0  0  0  0  0  0  0
    1.5000    0.0000    0.0000 C   0  0  0  0  0  0  0  0  0  0  0  0
    0.7500    1.2990    0.0000 C   0  0  0  0  0  0  0  0  0  0  0  0
   -0.7500    1.2990    0.0000 C   0  0  0  0  0  0  0  0  0  0  0  0
   -1.5000    0.0000    0.0000 C   0  0  0  0  0  0  0  0  0  0  0  0
   -0.7500   -1.2990    0.0000 C   0  0  0  0  0  0  0  0  0  0  0  0
   -0.0000   -0.0000    0.0000 N   0  0  0  0  0  0  0  0  0  0  0  0
    0.7500   -1.2990    0.0000 C   0  0  0  0  0  0  0  0  0  0  0  0
   -0.0000   -2.5981    0.0000 C   0  0  0  0  0  0  0  0  0  0  0  0
    0.7500   -3.8971    0.0000 C   0  0  0  0  0  0  0  0  0  0  0  0
   -0.0000   -5.1962    0.0000 C   0  0  0  0  0  0  0  0  0  0  0  0
    0.7500   -6.4952    0.0000 C   0  0  0  0  0  0  0  0  0  0  0  0
    2.2500   -6.4952    0.0000 C   0  0  0  0  0  0  0  0  0  0  0  0
    3.0000   -5.1962    0.0000 C   0  0  0  0  0  0  0  0  0  0  0  0
    2.2500   -3.8971    0.0000 C   0  0  0  0  0  0  0  0  0  0  0  0
    1.5000   -5.1962    0.0000 C   0  0  0  0  0  0  0  0  0  0  0  0
    0.7500   -6.4952    0.0000 C   0  0  0  0  0  0  0  0  0  0  0  0
    1.5000   -7.7942    0.0000 C   0  0  0  0  0  0  0  0  0  0  0  0
    3.0000   -7.7942    0.0000 C   0  0  0  0  0  0  0  0  0  0  0  0
    3.7500   -6.4952    0.0000 C   0  0  0  0  0  0  0  0  0  0  0  0
    3.0000   -5.1962    0.0000 C   0  0  0  0  0  0  0  0  0  0  0  0
    2.2500   -6.4952    0.0000 N   0  0  0  0  0  0  0  0  0  0  0  0
    1.5000   -5.1962    0.0000 C   0  0  0  0  0  0  0  0  0  0  0  0
    2.2500   -3.8971    0.0000 C   0  0  0  0  0  0  0  0  0  0  0  0
    1.5000   -2.5981    0.0000 C   0  0  0  0  0  0  0  0  0  0  0  0
    2.2500   -1.2990    0.0000 C   0  0  0  0  0  0  0  0  0  0  0  0
    1.5000    0.0000    0.0000 C   0  0  0  0  0  0  0  0  0  0  0  0
    0.0000    0.0000    0.0000 C   0  0  0  0  0  0  0  0  0  0  0  0
   -0.7500   -1.2990    0.0000 C   0  0  0  0  0  0  0  0  0  0  0  0
    0.0000   -2.5981    0.0000 C   0  0  0  0  0  0  0  0  0  0  0  0
  1  2  2  0
  2  3  1  0
  3  4  1  0
  4  5  1  0
  5  6  1  0
  6  7  1  0
  7  8  1  0
  8  9  1  0
  8 10  1  0
 10 11  1  0
 11 12  1  0
 12 13  1  0
 13 14  2  0
 14 15  1  0
 15 16  2  0
 16 17  1  0
 17 18  2  0
  2 19  1  0
 19 20  1  0
 20 21  1  0
 21 22  1  0
 22 23  1  0
 23 24  1  0
 23 25  1  0
 25 26  1  0
 26 27  1  0
 27 28  1  0
 28 29  2  0
 29 30  1  0
 30 31  2  0
 31 32  1  0
 32 33  2  0
  9  4  1  0
 18 13  1  0
 24 19  1  0
 33 28  1  0
 10  6  1  0
 25 21  1  0
M  END
>  <Title>  (108) 
idAAKRgen6

$$$$

     RDKit          2D

 70 74  0  0  0  0  0  0  0  0999 V2000
    1.3213    3.6010    0.0000 C   0  0  0  0  0  0  0  0  0  0  0  0
    0.5197    4.8688    0.0000 C   0  0  0  0  0  0  0  0  0  0  0  0
   -0.3815    3.6696    0.0000 C   0  0  0  0  0  0  0  0  0  0  0  0
   -1.8705    3.8504    0.0000 C   0  0  0  0  0  0  0  0  0  0  0  0
   -2.4585    5.2304    0.0000 C   0  0  0  0  0  0  0  0  0  0  0  0
   -3.9475    5.4112    0.0000 C   0  0  0  0  0  0  0  0  0  0  0  0
   -4.8487    4.2120    0.0000 O   0  0  0  0  0  0  0  0  0  0  0  0
   -4.5355    6.7912    0.0000 C   0  0  0  0  0  0  0  0  0  0  0  0
   -3.1016    7.2317    0.0000 O   0  0  0  0  0  0  0  0  0  0  0  0
   -4.8237    8.2632    0.0000 C   0  0  0  0  0  0  0  0  0  0  0  0
   -6.3127    8.4440    0.0000 C   0  0  0  0  0  0  0  0  0  0  0  0
   -6.9448    7.0837    0.0000 C   0  0  0  0  0  0  0  0  0  0  0  0
   -5.8464    6.0622    0.0000 C   0  0  0  0  0  0  0  0  0  0  0  0
   -2.7716    2.6513    0.0000 C   0  0  0  0  0  0  0  0  0  0  0  0
   -2.1837    1.2713    0.0000 O   0  0  0  0  0  0  0  0  0  0  0  0
   -4.2607    2.8321    0.0000 C   0  0  0  0  0  0  0  0  0  0  0  0
   -5.1618    1.6329    0.0000 O   0  0  0  0  0  0  0  0  0  0  0  0
   -0.9211    5.2861    0.0000 C   0  0  0  0  0  0  0  0  0  0  0  0
   -2.0029    6.3252    0.0000 C   0  0  0  0  0  0  0  0  0  0  0  0
   -2.4779    7.7480    0.0000 C   0  0  0  0  0  0  0  0  0  0  0  0
   -2.2373    9.2286    0.0000 C   0  0  0  0  0  0  0  0  0  0  0  0
   -1.3362   10.4277    0.0000 C   0  0  0  0  0  0  0  0  0  0  0  0
    0.0190   11.0708    0.0000 C   0  0  0  0  0  0  0  0  0  0  0  0
    1.5178   11.0104    0.0000 C   0  0  0  0  0  0  0  0  0  0  0  0
    2.8168   10.2604    0.0000 C   0  0  0  0  0  0  0  0  0  0  0  0
    3.6185    8.9926    0.0000 C   0  0  0  0  0  0  0  0  0  0  0  0
    3.7392    7.4975    0.0000 C   0  0  0  0  0  0  0  0  0  0  0  0
    3.1512    6.1175    0.0000 C   0  0  0  0  0  0  0  0  0  0  0  0
    1.9893    5.1688    0.0000 C   0  0  0  0  0  0  0  0  0  0  0  0
    2.6324    3.8137    0.0000 C   0  0  0  0  0  0  0  0  0  0  0  0
    4.1275    3.6930    0.0000 C   0  0  0  0  0  0  0  0  0  0  0  0
    3.5831    2.2952    0.0000 C   0  0  0  0  0  0  0  0  0  0  0  0
    2.1854    2.8397    0.0000 C   0  0  0  0  0  0  0  0  0  0  0  0
    4.9808    1.7508    0.0000 C   0  0  0  0  0  0  0  0  0  0  0  0
    3.0386    0.8975    0.0000 C   0  0  0  0  0  0  0  0  0  0  0  0
    5.3104    2.7705    0.0000 C   0  0  0  0  0  0  0  0  0  0  0  0
    6.8094    2.8242    0.0000 C   0  0  0  0  0  0  0  0  0  0  0  0
    7.9232    3.8289    0.0000 C   0  0  0  0  0  0  0  0  0  0  0  0
    9.2483    3.1259    0.0000 C   0  0  0  0  0  0  0  0  0  0  0  0
   10.5196    3.9219    0.0000 O   0  0  0  0  0  0  0  0  0  0  0  0
    9.3020    1.6268    0.0000 N   0  0  0  0  0  0  0  0  0  0  0  0
   10.6270    0.9238    0.0000 C   0  0  0  0  0  0  0  0  0  0  0  0
   10.6807   -0.5752    0.0000 C   0  0  0  0  0  0  0  0  0  0  0  0
   12.0057   -1.2782    0.0000 C   0  0  0  0  0  0  0  0  0  0  0  0
   12.0594   -2.7773    0.0000 C   0  0  0  0  0  0  0  0  0  0  0  0
   13.3845   -3.4803    0.0000 C   0  0  0  0  0  0  0  0  0  0  0  0
   14.6558   -2.6843    0.0000 C   0  0  0  0  0  0  0  0  0  0  0  0
   14.6022   -1.1852    0.0000 C   0  0  0  0  0  0  0  0  0  0  0  0
   13.2771   -0.4822    0.0000 C   0  0  0  0  0  0  0  0  0  0  0  0
   11.8984    1.7198    0.0000 C   0  0  0  0  0  0  0  0  0  0  0  0
   11.8447    3.2189    0.0000 O   0  0  0  0  0  0  0  0  0  0  0  0
   13.2234    1.0168    0.0000 N   0  0  0  0  0  0  0  0  0  0  0  0
   14.4948    1.8128    0.0000 C   0  0  0  0  0  0  0  0  0  0  0  0
   15.8198    1.1098    0.0000 C   0  0  0  0  0  0  0  0  0  0  0  0
   17.0912    1.9058    0.0000 C   0  0  0  0  0  0  0  0  0  0  0  0
   18.4162    1.2028    0.0000 C   0  0  0  0  0  0  0  0  0  0  0  0
   19.6876    1.9988    0.0000 C   0  0  0  0  0  0  0  0  0  0  0  0
   19.6339    3.4979    0.0000 C   0  0  0  0  0  0  0  0  0  0  0  0
   18.3089    4.2009    0.0000 C   0  0  0  0  0  0  0  0  0  0  0  0
   17.0375    3.4049    0.0000 C   0  0  0  0  0  0  0  0  0  0  0  0
   14.4411    3.3119    0.0000 C   0  0  0  0  0  0  0  0  0  0  0  0
   13.1160    4.0149    0.0000 O   0  0  0  0  0  0  0  0  0  0  0  0
   15.7124    4.1079    0.0000 O   0  0  0  0  0  0  0  0  0  0  0  0
    8.1306    5.3145    0.0000 C   0  0  0  0  0  0  0  0  0  0  0  0
    7.3346    6.5859    0.0000 C   0  0  0  0  0  0  0  0  0  0  0  0
    8.2571    7.7687    0.0000 O   0  0  0  0  0  0  0  0  0  0  0  0
    5.9076    7.0481    0.0000 C   0  0  0  0  0  0  0  0  0  0  0  0
    4.5174    6.4849    0.0000 C   0  0  0  0  0  0  0  0  0  0  0  0
    4.1425    7.1885    0.0000 O   0  0  0  0  0  0  0  0  0  0  0  0
    3.8143    5.1599    0.0000 C   0  0  0  0  0  0  0  0  0  0  0  0
  1  2  1  0
  2  3  1  0
  3  4  1  0
  4  5  1  0
  5  6  1  0
  6  7  1  0
  6  8  1  0
  8  9  1  0
  8 10  1  0
 10 11  1  0
 11 12  1  0
 12 13  1  0
  4 14  1  0
 14 15  1  0
 14 16  1  0
 16 17  1  0
  2 18  1  0
 18 19  1  0
 19 20  1  0
 20 21  1  0
 21 22  1  0
 22 23  1  0
 23 24  1  0
 24 25  1  0
 25 26  1  0
 26 27  1  0
 27 28  1  0
 28 29  1  0
 29 30  1  0
 30 31  1  0
 31 32  1  0
 32 33  1  0
 32 34  1  0
 32 35  1  0
 31 36  1  0
 36 37  1  0
 37 38  1  0
 38 39  1  0
 39 40  2  0
 39 41  1  0
 41 42  1  0
 42 43  1  0
 43 44  1  0
 44 45  2  0
 45 46  1  0
 46 47  2  0
 47 48  1  0
 48 49  2  0
 42 50  1  0
 50 51  2  0
 50 52  1  0
 52 53  1  0
 53 54  1  0
 54 55  1  0
 55 56  2  0
 56 57  1  0
 57 58  2  0
 58 59  1  0
 59 60  2  0
 53 61  1  0
 61 62  2  0
 61 63  1  0
 38 64  1  0
 64 65  1  0
 65 66  1  0
 65 67  1  0
 67 68  1  0
 68 69  1  0
 68 70  1  0
 29  2  1  0
 70 31  1  0
 13  8  1  0
 49 44  1  0
 60 55  1  0
M  END
>  <Title>  (109) 
idAAKSgen6

$$$$

     RDKit          2D

 28 32  0  0  0  0  0  0  0  0999 V2000
   -5.4591    4.7625    0.0000 C   0  0  0  0  0  0  0  0  0  0  0  0
   -5.6733    5.6219    0.0000 C   0  0  0  0  0  0  0  0  0  0  0  0
   -4.1770    5.7265    0.0000 C   0  0  0  0  0  0  0  0  0  0  0  0
   -7.0436    5.0118    0.0000 C   0  0  0  0  0  0  0  0  0  0  0  0
   -5.8301    4.1301    0.0000 C   0  0  0  0  0  0  0  0  0  0  0  0
   -4.4598    4.7402    0.0000 C   0  0  0  0  0  0  0  0  0  0  0  0
   -3.2463    3.8586    0.0000 C   0  0  0  0  0  0  0  0  0  0  0  0
   -1.8760    4.4687    0.0000 O   0  0  0  0  0  0  0  0  0  0  0  0
   -3.4031    2.3668    0.0000 N   0  0  0  0  0  0  0  0  0  0  0  0
   -2.1895    1.4851    0.0000 C   0  0  0  0  0  0  0  0  0  0  0  0
   -0.8192    2.0952    0.0000 C   0  0  0  0  0  0  0  0  0  0  0  0
    0.3943    1.2135    0.0000 C   0  0  0  0  0  0  0  0  0  0  0  0
    1.2760    0.0000    0.0000 C   0  0  0  0  0  0  0  0  0  0  0  0
    0.3943   -1.2135    0.0000 C   0  0  0  0  0  0  0  0  0  0  0  0
   -1.0323   -0.7500    0.0000 C   0  0  0  0  0  0  0  0  0  0  0  0
   -2.3463   -0.0067    0.0000 C   0  0  0  0  0  0  0  0  0  0  0  0
   -1.0323    0.7500    0.0000 N   0  0  0  0  0  0  0  0  0  0  0  0
   -2.2458    1.6317    0.0000 C   0  0  0  0  0  0  0  0  0  0  0  0
   -2.0890    3.1235    0.0000 C   0  0  0  0  0  0  0  0  0  0  0  0
   -3.3025    4.0051    0.0000 C   0  0  0  0  0  0  0  0  0  0  0  0
   -3.1458    5.4969    0.0000 C   0  0  0  0  0  0  0  0  0  0  0  0
   -4.3593    6.3786    0.0000 C   0  0  0  0  0  0  0  0  0  0  0  0
   -5.7296    5.7685    0.0000 C   0  0  0  0  0  0  0  0  0  0  0  0
   -5.8864    4.2767    0.0000 C   0  0  0  0  0  0  0  0  0  0  0  0
   -4.6729    3.3950    0.0000 C   0  0  0  0  0  0  0  0  0  0  0  0
   -4.3030    6.2320    0.0000 C   0  0  0  0  0  0  0  0  0  0  0  0
   -5.5165    7.1137    0.0000 C   0  0  0  0  0  0  0  0  0  0  0  0
   -6.8869    6.5036    0.0000 C   0  0  0  0  0  0  0  0  0  0  0  0
  1  2  1  0
  2  3  1  0
  2  4  1  0
  4  5  1  0
  5  6  1  0
  6  7  1  0
  7  8  2  0
  7  9  1  0
  9 10  1  0
 10 11  1  0
 11 12  1  0
 12 13  1  0
 13 14  1  0
 14 15  1  0
 15 16  1  0
 15 17  1  0
 17 18  1  0
 18 19  1  0
 19 20  1  0
 20 21  2  0
 21 22  1  0
 22 23  2  0
 23 24  1  0
 24 25  2  0
  6 26  1  0
 26 27  1  0
 27 28  1  0
 27  2  1  0
 28  4  1  0
 16 10  1  0
 25 20  1  0
 17 12  1  0
M  END
>  <Title>  (110) 
idAAKTgen6

$$$$

     RDKit          2D

 63 70  0  0  0  0  0  0  0  0999 V2000
   -4.6528   -2.6992    0.0000 O   0  0  0  0  0  0  0  0  0  0  0  0
   -3.7500   -3.8971    0.0000 C   0  0  0  0  0  0  0  0  0  0  0  0
   -2.2500   -3.8971    0.0000 N   0  0  0  0  0  0  0  0  0  0  0  0
   -1.5000   -2.5981    0.0000 C   0  0  0  0  0  0  0  0  0  0  0  0
   -0.0000   -2.5981    0.0000 C   0  0  0  0  0  0  0  0  0  0  0  0
    0.7500   -1.2990    0.0000 C   0  0  0  0  0  0  0  0  0  0  0  0
    1.5000    0.0000    0.0000 C   0  0  0  0  0  0  0  0  0  0  0  0
    0.7500    1.2990    0.0000 C   0  0  0  0  0  0  0  0  0  0  0  0
   -0.7500    1.2990    0.0000 C   0  0  0  0  0  0  0  0  0  0  0  0
   -1.5000    0.0000    0.0000 C   0  0  0  0  0  0  0  0  0  0  0  0
   -2.2500   -1.2990    0.0000 O   0  0  0  0  0  0  0  0  0  0  0  0
   -0.7500   -1.2990    0.0000 N   0  0  0  0  0  0  0  0  0  0  0  0
   -1.5000   -2.5981    0.0000 C   0  0  0  0  0  0  0  0  0  0  0  0
   -3.0000   -2.5981    0.0000 C   0  0  0  0  0  0  0  0  0  0  0  0
   -3.7500   -3.8971    0.0000 C   0  0  0  0  0  0  0  0  0  0  0  0
   -5.2500   -3.8971    0.0000 C   0  0  0  0  0  0  0  0  0  0  0  0
   -6.0000   -5.1962    0.0000 C   0  0  0  0  0  0  0  0  0  0  0  0
   -5.2500   -6.4952    0.0000 C   0  0  0  0  0  0  0  0  0  0  0  0
   -3.7500   -6.4952    0.0000 C   0  0  0  0  0  0  0  0  0  0  0  0
   -3.0000   -5.1962    0.0000 C   0  0  0  0  0  0  0  0  0  0  0  0
   -4.5000   -5.1962    0.0000 C   0  0  0  0  0  0  0  0  0  0  0  0
   -6.0000   -5.1962    0.0000 C   0  0  0  0  0  0  0  0  0  0  0  0
   -6.7500   -6.4952    0.0000 C   0  0  0  0  0  0  0  0  0  0  0  0
   -6.0000   -7.7942    0.0000 C   0  0  0  0  0  0  0  0  0  0  0  0
   -4.5000   -7.7942    0.0000 C   0  0  0  0  0  0  0  0  0  0  0  0
   -3.7500   -6.4952    0.0000 C   0  0  0  0  0  0  0  0  0  0  0  0
   -5.2500   -6.4952    0.0000 C   0  0  0  0  0  0  0  0  0  0  0  0
   -4.5000   -5.1962    0.0000 C   0  0  0  0  0  0  0  0  0  0  0  0
   -5.5420   -4.1172    0.0000 O   0  0  0  0  0  0  0  0  0  0  0  0
   -3.0000   -5.1962    0.0000 N   0  0  0  0  0  0  0  0  0  0  0  0
   -2.2500   -3.8971    0.0000 C   0  0  0  0  0  0  0  0  0  0  0  0
   -0.7500   -3.8971    0.0000 C   0  0  0  0  0  0  0  0  0  0  0  0
    0.0000   -2.5981    0.0000 C   0  0  0  0  0  0  0  0  0  0  0  0
    1.5000   -2.5981    0.0000 C   0  0  0  0  0  0  0  0  0  0  0  0
    2.2500   -1.2990    0.0000 C   0  0  0  0  0  0  0  0  0  0  0  0
    1.5000   -0.0000    0.0000 C   0  0  0  0  0  0  0  0  0  0  0  0
    0.0000   -0.0000    0.0000 C   0  0  0  0  0  0  0  0  0  0  0  0
   -0.7500   -1.2990    0.0000 C   0  0  0  0  0  0  0  0  0  0  0  0
   -3.0000   -2.5981    0.0000 C   0  0  0  0  0  0  0  0  0  0  0  0
   -4.4888   -2.4152    0.0000 O   0  0  0  0  0  0  0  0  0  0  0  0
   -2.2500   -1.2990    0.0000 N   0  0  0  0  0  0  0  0  0  0  0  0
   -3.0000   -0.0000    0.0000 C   0  0  0  0  0  0  0  0  0  0  0  0
   -2.2500    1.2990    0.0000 C   0  0  0  0  0  0  0  0  0  0  0  0
   -3.0000    2.5981    0.0000 C   0  0  0  0  0  0  0  0  0  0  0  0
   -2.2500    3.8971    0.0000 C   0  0  0  0  0  0  0  0  0  0  0  0
   -3.0000    5.1962    0.0000 C   0  0  0  0  0  0  0  0  0  0  0  0
   -4.5000    5.1962    0.0000 C   0  0  0  0  0  0  0  0  0  0  0  0
   -5.2500    3.8971    0.0000 C   0  0  0  0  0  0  0  0  0  0  0  0
   -4.5000    2.5981    0.0000 C   0  0  0  0  0  0  0  0  0  0  0  0
   -4.5000   -0.0000    0.0000 C   0  0  0  0  0  0  0  0  0  0  0  0
   -5.2500   -1.2990    0.0000 O   0  0  0  0  0  0  0  0  0  0  0  0
   -5.2500    1.2990    0.0000 N   0  0  0  0  0  0  0  0  0  0  0  0
   -6.7500    1.2990    0.0000 C   0  0  0  0  0  0  0  0  0  0  0  0
   -7.5000    2.5981    0.0000 C   0  0  0  0  0  0  0  0  0  0  0  0
   -9.0000    2.5981    0.0000 C   0  0  0  0  0  0  0  0  0  0  0  0
   -9.7500    3.8971    0.0000 C   0  0  0  0  0  0  0  0  0  0  0  0
  -11.2500    3.8971    0.0000 C   0  0  0  0  0  0  0  0  0  0  0  0
  -12.0000    2.5981    0.0000 C   0  0  0  0  0  0  0  0  0  0  0  0
  -11.2500    1.2990    0.0000 C   0  0  0  0  0  0  0  0  0  0  0  0
   -9.7500    1.2990    0.0000 C   0  0  0  0  0  0  0  0  0  0  0  0
   -7.5000    0.0000    0.0000 C   0  0  0  0  0  0  0  0  0  0  0  0
   -6.7500   -1.2990    0.0000 O   0  0  0  0  0  0  0  0  0  0  0  0
   -9.0000    0.0000    0.0000 O   0  0  0  0  0  0  0  0  0  0  0  0
  1  2  2  0
  2  3  1  0
  3  4  1  0
  4  5  1  0
  5  6  1  0
  6  7  1  0
  7  8  1  0
  8  9  1  0
  9 10  1  0
 10 11  1  0
 10 12  1  0
 12 13  1  0
 13 14  1  0
 14 15  1  0
 15 16  2  0
 16 17  1  0
 17 18  2  0
 18 19  1  0
 19 20  2  0
  2 21  1  0
 21 22  1  0
 22 23  1  0
 23 24  1  0
 24 25  1  0
 25 26  1  0
 25 27  1  0
 27 28  1  0
 28 29  2  0
 28 30  1  0
 30 31  1  0
 31 32  1  0
 32 33  1  0
 33 34  2  0
 34 35  1  0
 35 36  2  0
 36 37  1  0
 37 38  2  0
 31 39  1  0
 39 40  2  0
 39 41  1  0
 41 42  1  0
 42 43  1  0
 43 44  1  0
 44 45  2  0
 45 46  1  0
 46 47  2  0
 47 48  1  0
 48 49  2  0
 42 50  1  0
 50 51  2  0
 50 52  1  0
 52 53  1  0
 53 54  1  0
 54 55  1  0
 55 56  2  0
 56 57  1  0
 57 58  2  0
 58 59  1  0
 59 60  2  0
 53 61  1  0
 61 62  2  0
 61 63  1  0
 11  4  1  0
 20 15  1  0
 26 21  1  0
 38 33  1  0
 49 44  1  0
 60 55  1  0
 12  6  1  0
 27 23  1  0
M  END
>  <Title>  (111) 
idAAKUgen6

$$$$

     RDKit          2D

 72 81  0  0  0  0  0  0  0  0999 V2000
   -1.8760    4.4687    0.0000 O   0  0  0  0  0  0  0  0  0  0  0  0
   -3.2463    3.8586    0.0000 C   0  0  0  0  0  0  0  0  0  0  0  0
   -3.4031    2.3668    0.0000 N   0  0  0  0  0  0  0  0  0  0  0  0
   -2.1895    1.4851    0.0000 C   0  0  0  0  0  0  0  0  0  0  0  0
   -0.8192    2.0952    0.0000 C   0  0  0  0  0  0  0  0  0  0  0  0
    0.3943    1.2135    0.0000 C   0  0  0  0  0  0  0  0  0  0  0  0
    1.2760    0.0000    0.0000 C   0  0  0  0  0  0  0  0  0  0  0  0
    0.3943   -1.2135    0.0000 C   0  0  0  0  0  0  0  0  0  0  0  0
   -1.0323   -0.7500    0.0000 C   0  0  0  0  0  0  0  0  0  0  0  0
   -2.3463   -0.0067    0.0000 C   0  0  0  0  0  0  0  0  0  0  0  0
   -1.0323    0.7500    0.0000 N   0  0  0  0  0  0  0  0  0  0  0  0
   -2.2458    1.6317    0.0000 C   0  0  0  0  0  0  0  0  0  0  0  0
   -2.0890    3.1235    0.0000 C   0  0  0  0  0  0  0  0  0  0  0  0
   -3.3025    4.0051    0.0000 C   0  0  0  0  0  0  0  0  0  0  0  0
   -3.1458    5.4969    0.0000 C   0  0  0  0  0  0  0  0  0  0  0  0
   -4.3593    6.3786    0.0000 C   0  0  0  0  0  0  0  0  0  0  0  0
   -5.7296    5.7685    0.0000 C   0  0  0  0  0  0  0  0  0  0  0  0
   -5.8864    4.2767    0.0000 C   0  0  0  0  0  0  0  0  0  0  0  0
   -4.6729    3.3950    0.0000 C   0  0  0  0  0  0  0  0  0  0  0  0
   -4.4598    4.7402    0.0000 C   0  0  0  0  0  0  0  0  0  0  0  0
   -4.3030    6.2320    0.0000 C   0  0  0  0  0  0  0  0  0  0  0  0
   -5.5165    7.1137    0.0000 C   0  0  0  0  0  0  0  0  0  0  0  0
   -6.8869    6.5036    0.0000 C   0  0  0  0  0  0  0  0  0  0  0  0
   -7.0436    5.0118    0.0000 C   0  0  0  0  0  0  0  0  0  0  0  0
   -5.8301    4.1301    0.0000 C   0  0  0  0  0  0  0  0  0  0  0  0
   -5.6733    5.6219    0.0000 C   0  0  0  0  0  0  0  0  0  0  0  0
   -4.4598    4.7402    0.0000 C   0  0  0  0  0  0  0  0  0  0  0  0
   -3.2778    5.6638    0.0000 O   0  0  0  0  0  0  0  0  0  0  0  0
   -4.6166    3.2485    0.0000 N   0  0  0  0  0  0  0  0  0  0  0  0
   -3.4031    2.3668    0.0000 C   0  0  0  0  0  0  0  0  0  0  0  0
   -3.5599    0.8750    0.0000 C   0  0  0  0  0  0  0  0  0  0  0  0
   -2.3463   -0.0067    0.0000 C   0  0  0  0  0  0  0  0  0  0  0  0
   -0.9760    0.6034    0.0000 C   0  0  0  0  0  0  0  0  0  0  0  0
   -0.8192    2.0952    0.0000 C   0  0  0  0  0  0  0  0  0  0  0  0
   -2.0328    2.9769    0.0000 C   0  0  0  0  0  0  0  0  0  0  0  0
   -2.1895    1.4851    0.0000 C   0  0  0  0  0  0  0  0  0  0  0  0
   -3.4031    2.3668    0.0000 C   0  0  0  0  0  0  0  0  0  0  0  0
   -3.2463    3.8586    0.0000 O   0  0  0  0  0  0  0  0  0  0  0  0
   -4.7734    1.7567    0.0000 N   0  0  0  0  0  0  0  0  0  0  0  0
   -5.9869    2.6383    0.0000 C   0  0  0  0  0  0  0  0  0  0  0  0
   -7.3572    2.0282    0.0000 C   0  0  0  0  0  0  0  0  0  0  0  0
   -8.5708    2.9099    0.0000 C   0  0  0  0  0  0  0  0  0  0  0  0
   -8.4140    4.4017    0.0000 C   0  0  0  0  0  0  0  0  0  0  0  0
   -9.6275    5.2834    0.0000 C   0  0  0  0  0  0  0  0  0  0  0  0
  -10.9978    4.6733    0.0000 C   0  0  0  0  0  0  0  0  0  0  0  0
  -11.1546    3.1815    0.0000 C   0  0  0  0  0  0  0  0  0  0  0  0
   -9.9411    2.2998    0.0000 C   0  0  0  0  0  0  0  0  0  0  0  0
   -5.8301    4.1301    0.0000 C   0  0  0  0  0  0  0  0  0  0  0  0
   -4.4598    4.7402    0.0000 O   0  0  0  0  0  0  0  0  0  0  0  0
   -7.0436    5.0118    0.0000 N   0  0  0  0  0  0  0  0  0  0  0  0
   -6.8869    6.5036    0.0000 C   0  0  0  0  0  0  0  0  0  0  0  0
   -8.1004    7.3853    0.0000 C   0  0  0  0  0  0  0  0  0  0  0  0
   -7.9436    8.8771    0.0000 C   0  0  0  0  0  0  0  0  0  0  0  0
   -6.5733    9.4872    0.0000 C   0  0  0  0  0  0  0  0  0  0  0  0
   -6.4165   10.9789    0.0000 C   0  0  0  0  0  0  0  0  0  0  0  0
   -7.6300   11.8606    0.0000 C   0  0  0  0  0  0  0  0  0  0  0  0
   -9.0003   11.2505    0.0000 C   0  0  0  0  0  0  0  0  0  0  0  0
   -9.1571    9.7587    0.0000 C   0  0  0  0  0  0  0  0  0  0  0  0
   -5.5165    7.1137    0.0000 C   0  0  0  0  0  0  0  0  0  0  0  0
   -4.3030    6.2320    0.0000 O   0  0  0  0  0  0  0  0  0  0  0  0
   -5.3597    8.6055    0.0000 N   0  0  0  0  0  0  0  0  0  0  0  0
   -3.9894    9.2156    0.0000 C   0  0  0  0  0  0  0  0  0  0  0  0
   -3.8326   10.7074    0.0000 C   0  0  0  0  0  0  0  0  0  0  0  0
   -2.4623   11.3175    0.0000 C   0  0  0  0  0  0  0  0  0  0  0  0
   -1.2488   10.4358    0.0000 C   0  0  0  0  0  0  0  0  0  0  0  0
    0.1215   11.0459    0.0000 C   0  0  0  0  0  0  0  0  0  0  0  0
    0.2783   12.5377    0.0000 C   0  0  0  0  0  0  0  0  0  0  0  0
   -0.9352   13.4194    0.0000 C   0  0  0  0  0  0  0  0  0  0  0  0
   -2.3055   12.8093    0.0000 C   0  0  0  0  0  0  0  0  0  0  0  0
   -2.7759    8.3339    0.0000 C   0  0  0  0  0  0  0  0  0  0  0  0
   -2.9327    6.8421    0.0000 O   0  0  0  0  0  0  0  0  0  0  0  0
   -1.4056    8.9440    0.0000 O   0  0  0  0  0  0  0  0  0  0  0  0
  1  2  2  0
  2  3  1  0
  3  4  1  0
  4  5  1  0
  5  6  1  0
  6  7  1  0
  7  8  1  0
  8  9  1  0
  9 10  1  0
  9 11  1  0
 11 12  1  0
 12 13  1  0
 13 14  1  0
 14 15  2  0
 15 16  1  0
 16 17  2  0
 17 18  1  0
 18 19  2  0
  2 20  1  0
 20 21  1  0
 21 22  1  0
 22 23  1  0
 23 24  1  0
 24 25  1  0
 24 26  1  0
 26 27  1  0
 27 28  2  0
 27 29  1  0
 29 30  1  0
 30 31  1  0
 31 32  1  0
 32 33  1  0
 33 34  1  0
 34 35  1  0
 34 36  1  0
 36 37  1  0
 37 38  2  0
 37 39  1  0
 39 40  1  0
 40 41  1  0
 41 42  1  0
 42 43  2  0
 43 44  1  0
 44 45  2  0
 45 46  1  0
 46 47  2  0
 40 48  1  0
 48 49  2  0
 48 50  1  0
 50 51  1  0
 51 52  1  0
 52 53  1  0
 53 54  2  0
 54 55  1  0
 55 56  2  0
 56 57  1  0
 57 58  2  0
 51 59  1  0
 59 60  2  0
 59 61  1  0
 61 62  1  0
 62 63  1  0
 63 64  1  0
 64 65  2  0
 65 66  1  0
 66 67  2  0
 67 68  1  0
 68 69  2  0
 62 70  1  0
 70 71  2  0
 70 72  1  0
 10  4  1  0
 19 14  1  0
 25 20  1  0
 35 30  1  0
 47 42  1  0
 58 53  1  0
 69 64  1  0
 11  6  1  0
 26 22  1  0
 36 32  1  0
M  END
>  <Title>  (112) 
idAAKVgen6

$$$$

     RDKit          2D

 44 45  0  0  0  0  0  0  0  0999 V2000
    8.5701   -1.0853    0.0000 C   0  0  0  0  0  0  0  0  0  0  0  0
    8.4368   -0.0000    0.0000 C   0  0  0  0  0  0  0  0  0  0  0  0
    8.4368    1.5000    0.0000 C   0  0  0  0  0  0  0  0  0  0  0  0
    9.9368   -0.0000    0.0000 C   0  0  0  0  0  0  0  0  0  0  0  0
    6.9368    0.0000    0.0000 C   0  0  0  0  0  0  0  0  0  0  0  0
    6.7746    1.4912    0.0000 C   0  0  0  0  0  0  0  0  0  0  0  0
    6.2957    2.9127    0.0000 C   0  0  0  0  0  0  0  0  0  0  0  0
    5.5223    4.1980    0.0000 C   0  0  0  0  0  0  0  0  0  0  0  0
    6.7165    5.1057    0.0000 C   0  0  0  0  0  0  0  0  0  0  0  0
    6.4167    6.5755    0.0000 C   0  0  0  0  0  0  0  0  0  0  0  0
    7.3789    7.7262    0.0000 C   0  0  0  0  0  0  0  0  0  0  0  0
    8.8785    7.6914    0.0000 C   0  0  0  0  0  0  0  0  0  0  0  0
    9.7863    6.4972    0.0000 C   0  0  0  0  0  0  0  0  0  0  0  0
    9.4187    5.0430    0.0000 C   0  0  0  0  0  0  0  0  0  0  0  0
    8.0525    4.4237    0.0000 C   0  0  0  0  0  0  0  0  0  0  0  0
    8.9602    3.2296    0.0000 C   0  0  0  0  0  0  0  0  0  0  0  0
    7.0903    3.2730    0.0000 C   0  0  0  0  0  0  0  0  0  0  0  0
    4.4908    5.2870    0.0000 C   0  0  0  0  0  0  0  0  0  0  0  0
    3.2493    6.1287    0.0000 C   0  0  0  0  0  0  0  0  0  0  0  0
    1.8558    6.6840    0.0000 C   0  0  0  0  0  0  0  0  0  0  0  0
    0.3756    6.9266    0.0000 C   0  0  0  0  0  0  0  0  0  0  0  0
   -1.1222    6.8454    0.0000 C   0  0  0  0  0  0  0  0  0  0  0  0
   -2.5676    6.4441    0.0000 C   0  0  0  0  0  0  0  0  0  0  0  0
   -3.8928    5.7415    0.0000 C   0  0  0  0  0  0  0  0  0  0  0  0
   -5.0361    4.7704    0.0000 C   0  0  0  0  0  0  0  0  0  0  0  0
   -5.9438    3.5763    0.0000 C   0  0  0  0  0  0  0  0  0  0  0  0
   -6.5737    2.2149    0.0000 C   0  0  0  0  0  0  0  0  0  0  0  0
   -6.8961    0.7500    0.0000 C   0  0  0  0  0  0  0  0  0  0  0  0
   -6.8961   -0.7500    0.0000 C   0  0  0  0  0  0  0  0  0  0  0  0
   -6.5737   -2.2149    0.0000 C   0  0  0  0  0  0  0  0  0  0  0  0
   -5.9438   -3.5763    0.0000 C   0  0  0  0  0  0  0  0  0  0  0  0
   -5.0361   -4.7704    0.0000 C   0  0  0  0  0  0  0  0  0  0  0  0
   -3.8928   -5.7415    0.0000 C   0  0  0  0  0  0  0  0  0  0  0  0
   -2.5676   -6.4441    0.0000 C   0  0  0  0  0  0  0  0  0  0  0  0
   -1.1222   -6.8454    0.0000 C   0  0  0  0  0  0  0  0  0  0  0  0
    0.3756   -6.9266    0.0000 C   0  0  0  0  0  0  0  0  0  0  0  0
    1.8558   -6.6840    0.0000 C   0  0  0  0  0  0  0  0  0  0  0  0
    3.2493   -6.1287    0.0000 C   0  0  0  0  0  0  0  0  0  0  0  0
    4.4908   -5.2870    0.0000 C   0  0  0  0  0  0  0  0  0  0  0  0
    5.5223   -4.1980    0.0000 C   0  0  0  0  0  0  0  0  0  0  0  0
    6.2957   -2.9127    0.0000 C   0  0  0  0  0  0  0  0  0  0  0  0
    6.7746   -1.4912    0.0000 C   0  0  0  0  0  0  0  0  0  0  0  0
    7.8416   -1.2517    0.0000 C   0  0  0  0  0  0  0  0  0  0  0  0
    7.8448   -2.5422    0.0000 C   0  0  0  0  0  0  0  0  0  0  0  0
  1  2  1  0
  2  3  1  0
  2  4  1  0
  2  5  1  0
  5  6  1  0
  6  7  1  0
  7  8  1  0
  8  9  1  0
  9 10  1  0
 10 11  1  0
 11 12  1  0
 12 13  1  0
 13 14  1  0
 14 15  1  0
 15 16  1  0
 15 17  1  0
  8 18  1  0
 18 19  1  0
 19 20  1  0
 20 21  1  0
 21 22  1  0
 22 23  1  0
 23 24  1  0
 24 25  1  0
 25 26  1  0
 26 27  1  0
 27 28  1  0
 28 29  1  0
 29 30  1  0
 30 31  1  0
 31 32  1  0
 32 33  1  0
 33 34  1  0
 34 35  1  0
 35 36  1  0
 36 37  1  0
 37 38  1  0
 38 39  1  0
 39 40  1  0
 40 41  1  0
 41 42  1  0
 42 43  1  0
 42 44  1  0
 42  5  1  0
 15  9  1  0
M  END
>  <Title>  (113) 
idAAKWgen6

$$$$

     RDKit          2D

 37 40  0  0  0  0  0  0  0  0999 V2000
   -0.7500   -6.4952    0.0000 O   0  0  0  0  0  0  0  0  0  0  0  0
   -1.5000   -5.1962    0.0000 C   0  0  0  0  0  0  0  0  0  0  0  0
   -0.7500   -3.8971    0.0000 N   0  0  0  0  0  0  0  0  0  0  0  0
    0.7500   -3.8971    0.0000 C   0  0  0  0  0  0  0  0  0  0  0  0
    1.5000   -2.5981    0.0000 C   0  0  0  0  0  0  0  0  0  0  0  0
    0.7500   -1.2990    0.0000 C   0  0  0  0  0  0  0  0  0  0  0  0
    1.5000    0.0000    0.0000 C   0  0  0  0  0  0  0  0  0  0  0  0
    0.7500    1.2990    0.0000 C   0  0  0  0  0  0  0  0  0  0  0  0
   -0.7500    1.2990    0.0000 C   0  0  0  0  0  0  0  0  0  0  0  0
   -1.5000    0.0000    0.0000 C   0  0  0  0  0  0  0  0  0  0  0  0
   -0.7500   -1.2990    0.0000 C   0  0  0  0  0  0  0  0  0  0  0  0
    1.5000   -5.1962    0.0000 C   0  0  0  0  0  0  0  0  0  0  0  0
    3.0000   -5.1962    0.0000 O   0  0  0  0  0  0  0  0  0  0  0  0
    0.7500   -6.4952    0.0000 N   0  0  0  0  0  0  0  0  0  0  0  0
    1.5000   -7.7942    0.0000 C   0  0  0  0  0  0  0  0  0  0  0  0
    0.7500   -9.0933    0.0000 C   0  0  0  0  0  0  0  0  0  0  0  0
    1.5000  -10.3923    0.0000 C   0  0  0  0  0  0  0  0  0  0  0  0
    0.7500  -11.6913    0.0000 C   0  0  0  0  0  0  0  0  0  0  0  0
    1.5000  -12.9904    0.0000 C   0  0  0  0  0  0  0  0  0  0  0  0
    3.0000  -12.9904    0.0000 C   0  0  0  0  0  0  0  0  0  0  0  0
    3.7500  -11.6913    0.0000 C   0  0  0  0  0  0  0  0  0  0  0  0
    3.0000  -10.3923    0.0000 C   0  0  0  0  0  0  0  0  0  0  0  0
    3.0000   -7.7942    0.0000 C   0  0  0  0  0  0  0  0  0  0  0  0
    3.7500   -6.4952    0.0000 O   0  0  0  0  0  0  0  0  0  0  0  0
    3.7500   -9.0933    0.0000 O   0  0  0  0  0  0  0  0  0  0  0  0
   -3.0000   -5.1962    0.0000 C   0  0  0  0  0  0  0  0  0  0  0  0
   -3.7500   -3.8971    0.0000 C   0  0  0  0  0  0  0  0  0  0  0  0
   -5.2500   -3.8971    0.0000 C   0  0  0  0  0  0  0  0  0  0  0  0
   -6.0000   -5.1962    0.0000 C   0  0  0  0  0  0  0  0  0  0  0  0
   -7.5000   -5.1962    0.0000 C   0  0  0  0  0  0  0  0  0  0  0  0
   -8.2500   -3.8971    0.0000 C   0  0  0  0  0  0  0  0  0  0  0  0
   -9.7500   -3.8971    0.0000 C   0  0  0  0  0  0  0  0  0  0  0  0
  -10.5000   -5.1962    0.0000 C   0  0  0  0  0  0  0  0  0  0  0  0
   -9.7500   -6.4952    0.0000 C   0  0  0  0  0  0  0  0  0  0  0  0
   -8.2500   -6.4952    0.0000 N   0  0  0  0  0  0  0  0  0  0  0  0
   -5.2500   -6.4952    0.0000 C   0  0  0  0  0  0  0  0  0  0  0  0
   -3.7500   -6.4952    0.0000 C   0  0  0  0  0  0  0  0  0  0  0  0
  1  2  2  0
  2  3  1  0
  3  4  1  0
  4  5  1  0
  5  6  1  0
  6  7  2  0
  7  8  1  0
  8  9  2  0
  9 10  1  0
 10 11  2  0
  4 12  1  0
 12 13  2  0
 12 14  1  0
 14 15  1  0
 15 16  1  0
 16 17  1  0
 17 18  2  0
 18 19  1  0
 19 20  2  0
 20 21  1  0
 21 22  2  0
 15 23  1  0
 23 24  2  0
 23 25  1  0
  2 26  1  0
 26 27  2  0
 27 28  1  0
 28 29  2  0
 29 30  1  0
 30 31  2  0
 31 32  1  0
 32 33  2  0
 33 34  1  0
 34 35  2  0
 29 36  1  0
 36 37  2  0
 11  6  1  0
 22 17  1  0
 37 26  1  0
 35 30  1  0
M  END
>  <Title>  (114) 
idAAKXgen6

$$$$

     RDKit          2D

 73 81  0  0  0  0  0  0  0  0999 V2000
   -8.2498   -1.4833    0.0000 C   0  0  0  0  0  0  0  0  0  0  0  0
   -7.3470   -2.6813    0.0000 C   0  0  0  0  0  0  0  0  0  0  0  0
   -6.3800   -1.5346    0.0000 C   0  0  0  0  0  0  0  0  0  0  0  0
   -8.7804   -3.1234    0.0000 C   0  0  0  0  0  0  0  0  0  0  0  0
   -9.3284   -4.5197    0.0000 C   0  0  0  0  0  0  0  0  0  0  0  0
   -8.5784   -5.8188    0.0000 C   0  0  0  0  0  0  0  0  0  0  0  0
   -7.0951   -6.0423    0.0000 C   0  0  0  0  0  0  0  0  0  0  0  0
   -5.9955   -5.0221    0.0000 C   0  0  0  0  0  0  0  0  0  0  0  0
   -6.1076   -3.5262    0.0000 C   0  0  0  0  0  0  0  0  0  0  0  0
   -4.8086   -2.7762    0.0000 C   0  0  0  0  0  0  0  0  0  0  0  0
   -3.6595   -3.7404    0.0000 C   0  0  0  0  0  0  0  0  0  0  0  0
   -2.1595   -3.7404    0.0000 C   0  0  0  0  0  0  0  0  0  0  0  0
   -1.0105   -2.7762    0.0000 C   0  0  0  0  0  0  0  0  0  0  0  0
   -0.7500   -1.2990    0.0000 C   0  0  0  0  0  0  0  0  0  0  0  0
    0.2142   -2.4481    0.0000 C   0  0  0  0  0  0  0  0  0  0  0  0
    0.7500   -1.2990    0.0000 C   0  0  0  0  0  0  0  0  0  0  0  0
    1.5000   -2.5981    0.0000 C   0  0  0  0  0  0  0  0  0  0  0  0
    3.0000   -2.5981    0.0000 C   0  0  0  0  0  0  0  0  0  0  0  0
    3.7500   -3.8971    0.0000 C   0  0  0  0  0  0  0  0  0  0  0  0
    5.2418   -4.0539    0.0000 C   0  0  0  0  0  0  0  0  0  0  0  0
    5.5537   -5.5211    0.0000 C   0  0  0  0  0  0  0  0  0  0  0  0
    4.2546   -6.2711    0.0000 C   0  0  0  0  0  0  0  0  0  0  0  0
    3.1399   -5.2674    0.0000 C   0  0  0  0  0  0  0  0  0  0  0  0
    1.5000    0.0000    0.0000 C   0  0  0  0  0  0  0  0  0  0  0  0
    0.7500    1.2990    0.0000 C   0  0  0  0  0  0  0  0  0  0  0  0
   -0.7500    1.2990    0.0000 C   0  0  0  0  0  0  0  0  0  0  0  0
   -1.5000    0.0000    0.0000 C   0  0  0  0  0  0  0  0  0  0  0  0
   -2.0130    1.4095    0.0000 C   0  0  0  0  0  0  0  0  0  0  0  0
   -2.9095    0.5130    0.0000 C   0  0  0  0  0  0  0  0  0  0  0  0
   -2.9095    2.0130    0.0000 C   0  0  0  0  0  0  0  0  0  0  0  0
   -4.2086    2.7630    0.0000 C   0  0  0  0  0  0  0  0  0  0  0  0
   -4.2086    4.2630    0.0000 C   0  0  0  0  0  0  0  0  0  0  0  0
   -2.9095    5.0130    0.0000 C   0  0  0  0  0  0  0  0  0  0  0  0
   -2.9095    6.5130    0.0000 C   0  0  0  0  0  0  0  0  0  0  0  0
   -4.2086    7.2630    0.0000 C   0  0  0  0  0  0  0  0  0  0  0  0
   -5.5076    6.5130    0.0000 C   0  0  0  0  0  0  0  0  0  0  0  0
   -3.1105    4.2630    0.0000 C   0  0  0  0  0  0  0  0  0  0  0  0
   -1.6105    4.2630    0.0000 C   0  0  0  0  0  0  0  0  0  0  0  0
   -1.6105    5.7630    0.0000 C   0  0  0  0  0  0  0  0  0  0  0  0
   -2.9095    3.5130    0.0000 C   0  0  0  0  0  0  0  0  0  0  0  0
   -5.5076    5.0130    0.0000 C   0  0  0  0  0  0  0  0  0  0  0  0
   -4.3191    0.0000    0.0000 C   0  0  0  0  0  0  0  0  0  0  0  0
   -4.4063    1.4975    0.0000 C   0  0  0  0  0  0  0  0  0  0  0  0
   -5.7467    2.1707    0.0000 C   0  0  0  0  0  0  0  0  0  0  0  0
   -5.5726    3.6605    0.0000 C   0  0  0  0  0  0  0  0  0  0  0  0
   -6.3969    4.9138    0.0000 C   0  0  0  0  0  0  0  0  0  0  0  0
   -7.8339    5.3440    0.0000 C   0  0  0  0  0  0  0  0  0  0  0  0
   -9.2112    4.7498    0.0000 C   0  0  0  0  0  0  0  0  0  0  0  0
   -9.8844    3.4094    0.0000 C   0  0  0  0  0  0  0  0  0  0  0  0
   -9.5385    1.9498    0.0000 C   0  0  0  0  0  0  0  0  0  0  0  0
   -8.3353    1.0541    0.0000 C   0  0  0  0  0  0  0  0  0  0  0  0
   -6.8378    1.1413    0.0000 C   0  0  0  0  0  0  0  0  0  0  0  0
   -7.1837   -0.3183    0.0000 C   0  0  0  0  0  0  0  0  0  0  0  0
   -5.5388    0.3913    0.0000 C   0  0  0  0  0  0  0  0  0  0  0  0
   -5.5388   -1.1087    0.0000 C   0  0  0  0  0  0  0  0  0  0  0  0
   -4.2397   -1.8587    0.0000 C   0  0  0  0  0  0  0  0  0  0  0  0
   -4.2397   -3.3587    0.0000 C   0  0  0  0  0  0  0  0  0  0  0  0
   -5.5388   -4.1087    0.0000 O   0  0  0  0  0  0  0  0  0  0  0  0
   -2.9407   -4.1087    0.0000 C   0  0  0  0  0  0  0  0  0  0  0  0
   -2.3306   -2.7384    0.0000 O   0  0  0  0  0  0  0  0  0  0  0  0
   -1.5141   -4.5722    0.0000 C   0  0  0  0  0  0  0  0  0  0  0  0
   -1.5141   -6.0722    0.0000 C   0  0  0  0  0  0  0  0  0  0  0  0
   -2.9407   -6.5358    0.0000 C   0  0  0  0  0  0  0  0  0  0  0  0
   -3.8224   -5.3222    0.0000 C   0  0  0  0  0  0  0  0  0  0  0  0
   -6.8378   -1.8587    0.0000 C   0  0  0  0  0  0  0  0  0  0  0  0
   -8.0357   -0.9559    0.0000 O   0  0  0  0  0  0  0  0  0  0  0  0
   -6.8378   -3.3587    0.0000 C   0  0  0  0  0  0  0  0  0  0  0  0
   -8.1368   -4.1087    0.0000 O   0  0  0  0  0  0  0  0  0  0  0  0
   -5.7786    0.3459    0.0000 C   0  0  0  0  0  0  0  0  0  0  0  0
   -5.7962    1.8458    0.0000 C   0  0  0  0  0  0  0  0  0  0  0  0
   -6.2999   -1.0606    0.0000 C   0  0  0  0  0  0  0  0  0  0  0  0
   -7.2785    0.3284    0.0000 C   0  0  0  0  0  0  0  0  0  0  0  0
   -5.0691   -1.2990    0.0000 C   0  0  0  0  0  0  0  0  0  0  0  0
  1  2  1  0
  2  3  1  0
  2  4  1  0
  4  5  1  0
  5  6  1  0
  6  7  1  0
  7  8  1  0
  8  9  1  0
  9 10  1  0
 10 11  1  0
 11 12  1  0
 12 13  1  0
 13 14  1  0
 14 15  1  0
 14 16  1  0
 16 17  1  0
 17 18  1  0
 18 19  1  0
 19 20  1  0
 20 21  1  0
 21 22  1  0
 22 23  1  0
 16 24  1  0
 24 25  1  0
 25 26  1  0
 26 27  1  0
 27 28  1  0
 27 29  1  0
 29 30  1  0
 30 31  1  0
 31 32  1  0
 32 33  1  0
 33 34  1  0
 34 35  1  0
 35 36  1  0
 36 37  1  0
 37 38  1  0
 38 39  1  0
 38 40  1  0
 36 41  1  0
 29 42  1  0
 42 43  1  0
 43 44  1  0
 44 45  1  0
 45 46  1  0
 46 47  1  0
 47 48  1  0
 48 49  1  0
 49 50  1  0
 50 51  1  0
 51 52  1  0
 52 53  1  0
 52 54  1  0
 54 55  1  0
 55 56  1  0
 56 57  1  0
 57 58  1  0
 57 59  1  0
 59 60  1  0
 59 61  1  0
 61 62  1  0
 62 63  1  0
 63 64  1  0
 55 65  1  0
 65 66  1  0
 65 67  1  0
 67 68  1  0
 42 69  1  0
 69 70  1  0
 69 71  1  0
 69 72  1  0
 42 73  1  0
  9  2  1  0
 73 10  1  0
 27 14  1  0
 40 32  1  0
 52 44  1  0
 64 59  1  0
 23 19  1  0
 41 32  1  0
 39 34  1  0
M  END
>  <Title>  (115) 
idAAKYgen6

$$$$

     RDKit          2D

 31 34  0  0  0  0  0  0  0  0999 V2000
   -4.4095    2.0130    0.0000 C   0  0  0  0  0  0  0  0  0  0  0  0
   -2.9095    2.0130    0.0000 C   0  0  0  0  0  0  0  0  0  0  0  0
   -1.4095    2.0130    0.0000 C   0  0  0  0  0  0  0  0  0  0  0  0
   -2.9095    3.5130    0.0000 C   0  0  0  0  0  0  0  0  0  0  0  0
   -2.9095    0.5130    0.0000 C   0  0  0  0  0  0  0  0  0  0  0  0
   -4.3191    0.0000    0.0000 C   0  0  0  0  0  0  0  0  0  0  0  0
   -5.0691   -1.2990    0.0000 C   0  0  0  0  0  0  0  0  0  0  0  0
   -4.8086   -2.7762    0.0000 C   0  0  0  0  0  0  0  0  0  0  0  0
   -6.1076   -3.5262    0.0000 C   0  0  0  0  0  0  0  0  0  0  0  0
   -7.4067   -2.7762    0.0000 C   0  0  0  0  0  0  0  0  0  0  0  0
   -8.7057   -3.5262    0.0000 C   0  0  0  0  0  0  0  0  0  0  0  0
   -8.7057   -5.0262    0.0000 C   0  0  0  0  0  0  0  0  0  0  0  0
   -7.4067   -5.7762    0.0000 C   0  0  0  0  0  0  0  0  0  0  0  0
   -6.1076   -5.0262    0.0000 C   0  0  0  0  0  0  0  0  0  0  0  0
   -3.6595   -3.7404    0.0000 C   0  0  0  0  0  0  0  0  0  0  0  0
   -2.1595   -3.7404    0.0000 C   0  0  0  0  0  0  0  0  0  0  0  0
   -1.0105   -2.7762    0.0000 C   0  0  0  0  0  0  0  0  0  0  0  0
   -0.7500   -1.2990    0.0000 C   0  0  0  0  0  0  0  0  0  0  0  0
    0.2142   -2.4481    0.0000 C   0  0  0  0  0  0  0  0  0  0  0  0
    0.7500   -1.2990    0.0000 C   0  0  0  0  0  0  0  0  0  0  0  0
    1.5000   -2.5981    0.0000 C   0  0  0  0  0  0  0  0  0  0  0  0
    3.0000   -2.5981    0.0000 C   0  0  0  0  0  0  0  0  0  0  0  0
    3.7500   -3.8971    0.0000 C   0  0  0  0  0  0  0  0  0  0  0  0
    5.2418   -4.0539    0.0000 C   0  0  0  0  0  0  0  0  0  0  0  0
    5.5537   -5.5211    0.0000 C   0  0  0  0  0  0  0  0  0  0  0  0
    4.2546   -6.2711    0.0000 C   0  0  0  0  0  0  0  0  0  0  0  0
    3.1399   -5.2674    0.0000 C   0  0  0  0  0  0  0  0  0  0  0  0
    1.5000    0.0000    0.0000 C   0  0  0  0  0  0  0  0  0  0  0  0
    0.7500    1.2990    0.0000 C   0  0  0  0  0  0  0  0  0  0  0  0
   -0.7500    1.2990    0.0000 C   0  0  0  0  0  0  0  0  0  0  0  0
   -1.5000    0.0000    0.0000 C   0  0  0  0  0  0  0  0  0  0  0  0
  1  2  1  0
  2  3  1  0
  2  4  1  0
  2  5  1  0
  5  6  1  0
  6  7  1  0
  7  8  1  0
  8  9  1  0
  9 10  1  0
 10 11  1  0
 11 12  1  0
 12 13  1  0
 13 14  1  0
  8 15  1  0
 15 16  1  0
 16 17  1  0
 17 18  1  0
 18 19  1  0
 18 20  1  0
 20 21  1  0
 21 22  1  0
 22 23  1  0
 23 24  1  0
 24 25  1  0
 25 26  1  0
 26 27  1  0
 20 28  1  0
 28 29  1  0
 29 30  1  0
 30 31  1  0
 31  5  1  0
 14  9  1  0
 31 18  1  0
 27 23  1  0
M  END
>  <Title>  (116) 
idAAKZgen6

$$$$

     RDKit          2D

 58 61  0  0  0  0  0  0  0  0999 V2000
    4.6727    2.6988    0.0000 C   0  0  0  0  0  0  0  0  0  0  0  0
    3.8060    1.4745    0.0000 C   0  0  0  0  0  0  0  0  0  0  0  0
    5.2713    1.1536    0.0000 C   0  0  0  0  0  0  0  0  0  0  0  0
    5.7260   -0.2759    0.0000 C   0  0  0  0  0  0  0  0  0  0  0  0
    4.7155   -1.3844    0.0000 C   0  0  0  0  0  0  0  0  0  0  0  0
    5.1702   -2.8138    0.0000 C   0  0  0  0  0  0  0  0  0  0  0  0
    4.1597   -3.9223    0.0000 O   0  0  0  0  0  0  0  0  0  0  0  0
    6.6355   -3.1347    0.0000 C   0  0  0  0  0  0  0  0  0  0  0  0
    6.9128   -2.3873    0.0000 O   0  0  0  0  0  0  0  0  0  0  0  0
    8.1355   -3.1439    0.0000 C   0  0  0  0  0  0  0  0  0  0  0  0
    8.5902   -4.5733    0.0000 C   0  0  0  0  0  0  0  0  0  0  0  0
    7.3712   -5.4475    0.0000 C   0  0  0  0  0  0  0  0  0  0  0  0
    6.1632   -4.5584    0.0000 C   0  0  0  0  0  0  0  0  0  0  0  0
    7.1913   -0.5968    0.0000 C   0  0  0  0  0  0  0  0  0  0  0  0
    8.2018    0.5118    0.0000 O   0  0  0  0  0  0  0  0  0  0  0  0
    7.6460   -2.0262    0.0000 C   0  0  0  0  0  0  0  0  0  0  0  0
    9.1113   -2.3471    0.0000 O   0  0  0  0  0  0  0  0  0  0  0  0
    4.0816    0.0000    0.0000 C   0  0  0  0  0  0  0  0  0  0  0  0
    3.8060   -1.4745    0.0000 C   0  0  0  0  0  0  0  0  0  0  0  0
    3.0164   -2.7498    0.0000 C   0  0  0  0  0  0  0  0  0  0  0  0
    1.8193   -3.6537    0.0000 C   0  0  0  0  0  0  0  0  0  0  0  0
    0.3766   -4.0642    0.0000 C   0  0  0  0  0  0  0  0  0  0  0  0
   -1.1170   -3.9258    0.0000 C   0  0  0  0  0  0  0  0  0  0  0  0
   -2.4597   -3.2572    0.0000 C   0  0  0  0  0  0  0  0  0  0  0  0
   -3.4703   -2.1487    0.0000 C   0  0  0  0  0  0  0  0  0  0  0  0
   -4.0121   -0.7500    0.0000 C   0  0  0  0  0  0  0  0  0  0  0  0
   -4.0121    0.7500    0.0000 C   0  0  0  0  0  0  0  0  0  0  0  0
   -3.4703    2.1487    0.0000 C   0  0  0  0  0  0  0  0  0  0  0  0
   -2.4597    3.2572    0.0000 C   0  0  0  0  0  0  0  0  0  0  0  0
   -1.1170    3.9258    0.0000 C   0  0  0  0  0  0  0  0  0  0  0  0
    0.3766    4.0642    0.0000 C   0  0  0  0  0  0  0  0  0  0  0  0
    1.8193    3.6537    0.0000 C   0  0  0  0  0  0  0  0  0  0  0  0
    3.0164    2.7498    0.0000 C   0  0  0  0  0  0  0  0  0  0  0  0
    4.1249    3.7603    0.0000 C   0  0  0  0  0  0  0  0  0  0  0  0
    5.5543    3.3056    0.0000 C   0  0  0  0  0  0  0  0  0  0  0  0
    6.0090    4.7350    0.0000 C   0  0  0  0  0  0  0  0  0  0  0  0
    7.5060    4.6397    0.0000 C   0  0  0  0  0  0  0  0  0  0  0  0
    4.5796    5.1897    0.0000 C   0  0  0  0  0  0  0  0  0  0  0  0
    6.4638    6.1644    0.0000 C   0  0  0  0  0  0  0  0  0  0  0  0
    6.0090    4.7350    0.0000 C   0  0  0  0  0  0  0  0  0  0  0  0
    7.4384    4.2803    0.0000 C   0  0  0  0  0  0  0  0  0  0  0  0
    8.7707    4.9695    0.0000 O   0  0  0  0  0  0  0  0  0  0  0  0
    6.9837    2.8509    0.0000 C   0  0  0  0  0  0  0  0  0  0  0  0
    8.4579    2.5738    0.0000 O   0  0  0  0  0  0  0  0  0  0  0  0
    6.5290    1.4215    0.0000 C   0  0  0  0  0  0  0  0  0  0  0  0
    5.2366    2.1829    0.0000 C   0  0  0  0  0  0  0  0  0  0  0  0
    5.6626    3.6211    0.0000 C   0  0  0  0  0  0  0  0  0  0  0  0
    4.4752    0.8905    0.0000 C   0  0  0  0  0  0  0  0  0  0  0  0
    3.9442    2.9443    0.0000 C   0  0  0  0  0  0  0  0  0  0  0  0
    5.4991    0.3309    0.0000 C   0  0  0  0  0  0  0  0  0  0  0  0
    5.7096   -1.1543    0.0000 C   0  0  0  0  0  0  0  0  0  0  0  0
    4.7017   -2.2652    0.0000 O   0  0  0  0  0  0  0  0  0  0  0  0
    7.0020   -1.9157    0.0000 C   0  0  0  0  0  0  0  0  0  0  0  0
    8.4031   -1.3800    0.0000 C   0  0  0  0  0  0  0  0  0  0  0  0
    8.8578    0.0495    0.0000 C   0  0  0  0  0  0  0  0  0  0  0  0
    8.0237    1.2962    0.0000 C   0  0  0  0  0  0  0  0  0  0  0  0
    9.4248    1.8319    0.0000 C   0  0  0  0  0  0  0  0  0  0  0  0
    7.9958    2.7959    0.0000 C   0  0  0  0  0  0  0  0  0  0  0  0
  1  2  1  0
  2  3  1  0
  3  4  1  0
  4  5  1  0
  5  6  1  0
  6  7  1  0
  6  8  1  0
  8  9  1  0
  8 10  1  0
 10 11  1  0
 11 12  1  0
 12 13  1  0
  4 14  1  0
 14 15  1  0
 14 16  1  0
 16 17  1  0
  2 18  1  0
 18 19  1  0
 19 20  1  0
 20 21  1  0
 21 22  1  0
 22 23  1  0
 23 24  1  0
 24 25  1  0
 25 26  1  0
 26 27  1  0
 27 28  1  0
 28 29  1  0
 29 30  1  0
 30 31  1  0
 31 32  1  0
 32 33  1  0
 33 34  1  0
 34 35  1  0
 35 36  1  0
 36 37  1  0
 36 38  1  0
 36 39  1  0
 35 40  1  0
 40 41  1  0
 41 42  1  0
 41 43  1  0
 43 44  1  0
 43 45  1  0
 45 46  1  0
 46 47  1  0
 46 48  1  0
 46 49  1  0
 45 50  1  0
 50 51  1  0
 51 52  1  0
 51 53  1  0
 53 54  1  0
 54 55  1  0
 55 56  1  0
 56 57  1  0
 56 58  1  0
 33  2  1  0
 43 35  1  0
 56 45  1  0
 13  8  1  0
M  END
>  <Title>  (117) 
idAALAgen6

$$$$

     RDKit          2D

 41 44  0  0  0  0  0  0  0  0999 V2000
    4.0903    2.7393    0.0000 C   0  0  0  0  0  0  0  0  0  0  0  0
    3.2954    1.4672    0.0000 C   0  0  0  0  0  0  0  0  0  0  0  0
    4.7726    1.2067    0.0000 C   0  0  0  0  0  0  0  0  0  0  0  0
    5.2857   -0.2028    0.0000 C   0  0  0  0  0  0  0  0  0  0  0  0
    6.7629   -0.4633    0.0000 C   0  0  0  0  0  0  0  0  0  0  0  0
    7.2759   -1.8728    0.0000 C   0  0  0  0  0  0  0  0  0  0  0  0
    6.3117   -3.0219    0.0000 O   0  0  0  0  0  0  0  0  0  0  0  0
    8.7531   -2.1333    0.0000 C   0  0  0  0  0  0  0  0  0  0  0  0
    8.8578   -0.6369    0.0000 O   0  0  0  0  0  0  0  0  0  0  0  0
   10.2522   -2.0809    0.0000 C   0  0  0  0  0  0  0  0  0  0  0  0
   10.7652   -3.4905    0.0000 C   0  0  0  0  0  0  0  0  0  0  0  0
    9.5832   -4.4140    0.0000 C   0  0  0  0  0  0  0  0  0  0  0  0
    8.3397   -3.5752    0.0000 C   0  0  0  0  0  0  0  0  0  0  0  0
    4.3215   -1.3519    0.0000 C   0  0  0  0  0  0  0  0  0  0  0  0
    3.5263   -1.4075    0.0000 O   0  0  0  0  0  0  0  0  0  0  0  0
    4.8345   -2.7614    0.0000 C   0  0  0  0  0  0  0  0  0  0  0  0
    3.8703   -3.9105    0.0000 O   0  0  0  0  0  0  0  0  0  0  0  0
    3.6073    0.0000    0.0000 C   0  0  0  0  0  0  0  0  0  0  0  0
    3.2954   -1.4672    0.0000 C   0  0  0  0  0  0  0  0  0  0  0  0
    2.4138   -2.6807    0.0000 C   0  0  0  0  0  0  0  0  0  0  0  0
    1.1147   -3.4307    0.0000 C   0  0  0  0  0  0  0  0  0  0  0  0
   -0.3771   -3.5875    0.0000 C   0  0  0  0  0  0  0  0  0  0  0  0
   -1.8037   -3.1240    0.0000 C   0  0  0  0  0  0  0  0  0  0  0  0
   -2.9184   -2.1203    0.0000 C   0  0  0  0  0  0  0  0  0  0  0  0
   -3.5285   -0.7500    0.0000 C   0  0  0  0  0  0  0  0  0  0  0  0
   -3.5285    0.7500    0.0000 C   0  0  0  0  0  0  0  0  0  0  0  0
   -2.9184    2.1203    0.0000 C   0  0  0  0  0  0  0  0  0  0  0  0
   -1.8037    3.1240    0.0000 C   0  0  0  0  0  0  0  0  0  0  0  0
   -0.3771    3.5875    0.0000 C   0  0  0  0  0  0  0  0  0  0  0  0
    1.1147    3.4307    0.0000 C   0  0  0  0  0  0  0  0  0  0  0  0
    2.4138    2.6807    0.0000 C   0  0  0  0  0  0  0  0  0  0  0  0
    3.4175    3.7955    0.0000 C   0  0  0  0  0  0  0  0  0  0  0  0
    4.8847    3.4836    0.0000 C   0  0  0  0  0  0  0  0  0  0  0  0
    4.8323    1.9845    0.0000 C   0  0  0  0  0  0  0  0  0  0  0  0
    3.5079    1.2803    0.0000 C   0  0  0  0  0  0  0  0  0  0  0  0
    3.4556   -0.2188    0.0000 C   0  0  0  0  0  0  0  0  0  0  0  0
    4.7276   -1.0137    0.0000 C   0  0  0  0  0  0  0  0  0  0  0  0
    6.0520   -0.3095    0.0000 C   0  0  0  0  0  0  0  0  0  0  0  0
    6.1044    1.1896    0.0000 C   0  0  0  0  0  0  0  0  0  0  0  0
    6.3701    3.6924    0.0000 C   0  0  0  0  0  0  0  0  0  0  0  0
    5.4466    4.8744    0.0000 C   0  0  0  0  0  0  0  0  0  0  0  0
  1  2  1  0
  2  3  1  0
  3  4  1  0
  4  5  1  0
  5  6  1  0
  6  7  1  0
  6  8  1  0
  8  9  1  0
  8 10  1  0
 10 11  1  0
 11 12  1  0
 12 13  1  0
  4 14  1  0
 14 15  1  0
 14 16  1  0
 16 17  1  0
  2 18  1  0
 18 19  1  0
 19 20  1  0
 20 21  1  0
 21 22  1  0
 22 23  1  0
 23 24  1  0
 24 25  1  0
 25 26  1  0
 26 27  1  0
 27 28  1  0
 28 29  1  0
 29 30  1  0
 30 31  1  0
 31 32  1  0
 32 33  1  0
 33 34  1  0
 34 35  2  0
 35 36  1  0
 36 37  2  0
 37 38  1  0
 38 39  2  0
 33 40  1  0
 40 41  1  0
 31  2  1  0
 41 33  1  0
 13  8  1  0
 39 34  1  0
M  END
>  <Title>  (118) 
idAALBgen6

$$$$

     RDKit          2D

 30 34  0  0  0  0  0  0  0  0999 V2000
   -1.8760    4.4687    0.0000 O   0  0  0  0  0  0  0  0  0  0  0  0
   -3.2463    3.8586    0.0000 C   0  0  0  0  0  0  0  0  0  0  0  0
   -4.4598    4.7402    0.0000 N   0  0  0  0  0  0  0  0  0  0  0  0
   -4.3030    6.2320    0.0000 C   0  0  0  0  0  0  0  0  0  0  0  0
   -5.5165    7.1137    0.0000 C   0  0  0  0  0  0  0  0  0  0  0  0
   -6.5955    6.0717    0.0000 C   0  0  0  0  0  0  0  0  0  0  0  0
   -8.0374    6.4852    0.0000 C   0  0  0  0  0  0  0  0  0  0  0  0
   -9.1164    5.4432    0.0000 C   0  0  0  0  0  0  0  0  0  0  0  0
   -8.7536    3.9877    0.0000 C   0  0  0  0  0  0  0  0  0  0  0  0
   -7.3117    3.5743    0.0000 C   0  0  0  0  0  0  0  0  0  0  0  0
   -6.2327    4.6163    0.0000 N   0  0  0  0  0  0  0  0  0  0  0  0
   -6.3553    8.3573    0.0000 C   0  0  0  0  0  0  0  0  0  0  0  0
   -4.8590    8.4619    0.0000 C   0  0  0  0  0  0  0  0  0  0  0  0
   -3.4031    2.3668    0.0000 N   0  0  0  0  0  0  0  0  0  0  0  0
   -2.1895    1.4851    0.0000 C   0  0  0  0  0  0  0  0  0  0  0  0
   -0.8192    2.0952    0.0000 C   0  0  0  0  0  0  0  0  0  0  0  0
    0.3943    1.2135    0.0000 C   0  0  0  0  0  0  0  0  0  0  0  0
    1.2760    0.0000    0.0000 C   0  0  0  0  0  0  0  0  0  0  0  0
    0.3943   -1.2135    0.0000 C   0  0  0  0  0  0  0  0  0  0  0  0
   -1.0323   -0.7500    0.0000 C   0  0  0  0  0  0  0  0  0  0  0  0
   -2.3463   -0.0067    0.0000 C   0  0  0  0  0  0  0  0  0  0  0  0
   -1.0323    0.7500    0.0000 N   0  0  0  0  0  0  0  0  0  0  0  0
   -2.2458    1.6317    0.0000 C   0  0  0  0  0  0  0  0  0  0  0  0
   -2.0890    3.1235    0.0000 C   0  0  0  0  0  0  0  0  0  0  0  0
   -3.3025    4.0051    0.0000 C   0  0  0  0  0  0  0  0  0  0  0  0
   -3.1458    5.4969    0.0000 C   0  0  0  0  0  0  0  0  0  0  0  0
   -4.3593    6.3786    0.0000 C   0  0  0  0  0  0  0  0  0  0  0  0
   -5.7296    5.7685    0.0000 C   0  0  0  0  0  0  0  0  0  0  0  0
   -5.8864    4.2767    0.0000 C   0  0  0  0  0  0  0  0  0  0  0  0
   -4.6729    3.3950    0.0000 C   0  0  0  0  0  0  0  0  0  0  0  0
  1  2  2  0
  2  3  1  0
  3  4  1  0
  4  5  1  0
  5  6  1  0
  6  7  2  0
  7  8  1  0
  8  9  2  0
  9 10  1  0
 10 11  2  0
  5 12  1  0
 12 13  1  0
  2 14  1  0
 14 15  1  0
 15 16  1  0
 16 17  1  0
 17 18  1  0
 18 19  1  0
 19 20  1  0
 20 21  1  0
 20 22  1  0
 22 23  1  0
 23 24  1  0
 24 25  1  0
 25 26  2  0
 26 27  1  0
 27 28  2  0
 28 29  1  0
 29 30  2  0
 13  5  1  0
 21 15  1  0
 30 25  1  0
 11  6  1  0
 22 17  1  0
M  END
>  <Title>  (119) 
idAALCgen6

$$$$

     RDKit          2D

 43 49  0  0  0  0  0  0  0  0999 V2000
    4.3139   -7.6789    0.0000 C   0  0  0  0  0  0  0  0  0  0  0  0
    2.8360   -7.9357    0.0000 C   0  0  0  0  0  0  0  0  0  0  0  0
    2.7351   -6.4391    0.0000 C   0  0  0  0  0  0  0  0  0  0  0  0
    3.9808   -5.6034    0.0000 C   0  0  0  0  0  0  0  0  0  0  0  0
    3.8798   -4.1068    0.0000 C   0  0  0  0  0  0  0  0  0  0  0  0
    5.1845   -3.3665    0.0000 C   0  0  0  0  0  0  0  0  0  0  0  0
    5.4191   -1.8850    0.0000 C   0  0  0  0  0  0  0  0  0  0  0  0
    4.4071   -0.7778    0.0000 C   0  0  0  0  0  0  0  0  0  0  0  0
    2.8674   -1.1512    0.0000 C   0  0  0  0  0  0  0  0  0  0  0  0
    3.5483    0.1853    0.0000 C   0  0  0  0  0  0  0  0  0  0  0  0
    3.5483   -2.4877    0.0000 C   0  0  0  0  0  0  0  0  0  0  0  0
    5.0299   -2.7223    0.0000 C   0  0  0  0  0  0  0  0  0  0  0  0
    5.9739   -1.5566    0.0000 C   0  0  0  0  0  0  0  0  0  0  0  0
    7.4554   -1.7913    0.0000 C   0  0  0  0  0  0  0  0  0  0  0  0
    8.3994   -0.6255    0.0000 C   0  0  0  0  0  0  0  0  0  0  0  0
    9.8809   -0.8602    0.0000 C   0  0  0  0  0  0  0  0  0  0  0  0
   10.4184   -2.2606    0.0000 C   0  0  0  0  0  0  0  0  0  0  0  0
    9.4745   -3.4263    0.0000 C   0  0  0  0  0  0  0  0  0  0  0  0
    7.6272   -0.7067    0.0000 C   0  0  0  0  0  0  0  0  0  0  0  0
    7.8618    0.7748    0.0000 C   0  0  0  0  0  0  0  0  0  0  0  0
    9.3433    0.5402    0.0000 C   0  0  0  0  0  0  0  0  0  0  0  0
    6.9178   -0.3909    0.0000 C   0  0  0  0  0  0  0  0  0  0  0  0
    7.9929   -3.1916    0.0000 C   0  0  0  0  0  0  0  0  0  0  0  0
    2.4877   -3.5483    0.0000 C   0  0  0  0  0  0  0  0  0  0  0  0
    2.7223   -5.0299    0.0000 C   0  0  0  0  0  0  0  0  0  0  0  0
    1.1512   -2.8674    0.0000 C   0  0  0  0  0  0  0  0  0  0  0  0
    1.3858   -1.3858    0.0000 C   0  0  0  0  0  0  0  0  0  0  0  0
    1.9598    0.0000    0.0000 C   0  0  0  0  0  0  0  0  0  0  0  0
    1.3858    1.3858    0.0000 C   0  0  0  0  0  0  0  0  0  0  0  0
    2.4465    2.4465    0.0000 C   0  0  0  0  0  0  0  0  0  0  0  0
    1.3858    3.5071    0.0000 C   0  0  0  0  0  0  0  0  0  0  0  0
    3.5071    1.3858    0.0000 C   0  0  0  0  0  0  0  0  0  0  0  0
    3.5071    3.5071    0.0000 C   0  0  0  0  0  0  0  0  0  0  0  0
    0.0000    1.9598    0.0000 C   0  0  0  0  0  0  0  0  0  0  0  0
   -1.3858    1.3858    0.0000 C   0  0  0  0  0  0  0  0  0  0  0  0
   -1.9598    0.0000    0.0000 C   0  0  0  0  0  0  0  0  0  0  0  0
   -1.3858   -1.3858    0.0000 C   0  0  0  0  0  0  0  0  0  0  0  0
   -0.0000   -1.9598    0.0000 C   0  0  0  0  0  0  0  0  0  0  0  0
   -0.0000   -3.4598    0.0000 N   0  0  0  0  0  0  0  0  0  0  0  0
    3.2459   -9.3786    0.0000 C   0  0  0  0  0  0  0  0  0  0  0  0
    2.0002  -10.2143    0.0000 C   0  0  0  0  0  0  0  0  0  0  0  0
    0.8205   -9.2878    0.0000 C   0  0  0  0  0  0  0  0  0  0  0  0
    1.3371   -7.8796    0.0000 C   0  0  0  0  0  0  0  0  0  0  0  0
  1  2  1  0
  2  3  1  0
  3  4  1  0
  4  5  1  0
  5  6  1  0
  6  7  1  0
  7  8  1  0
  8  9  1  0
  9 10  1  0
  9 11  1  0
 11 12  1  0
 12 13  1  0
 13 14  1  0
 14 15  1  0
 15 16  1  0
 16 17  1  0
 17 18  1  0
 18 19  1  0
 19 20  1  0
 20 21  1  0
 20 22  1  0
 18 23  1  0
 11 24  1  0
 24 25  1  0
 24 26  1  0
 26 27  1  0
 27 28  1  0
 28 29  1  0
 29 30  1  0
 30 31  1  0
 30 32  1  0
 30 33  1  0
 29 34  1  0
 34 35  1  0
 35 36  1  0
 36 37  1  0
 37 38  1  0
 38 39  1  0
  2 40  1  0
 40 41  1  0
 41 42  1  0
 42 43  1  0
 43  2  1  0
 24  5  1  0
 38 27  1  0
 27  9  1  0
 22 14  1  0
 23 14  1  0
 21 16  1  0
M  END
>  <Title>  (120) 
idAALDgen6

$$$$

     RDKit          2D

 57 63  0  0  0  0  0  0  0  0999 V2000
   -4.7734    1.7567    0.0000 O   0  0  0  0  0  0  0  0  0  0  0  0
   -3.4031    2.3668    0.0000 C   0  0  0  0  0  0  0  0  0  0  0  0
   -3.2463    3.8586    0.0000 N   0  0  0  0  0  0  0  0  0  0  0  0
   -4.4598    4.7402    0.0000 C   0  0  0  0  0  0  0  0  0  0  0  0
   -4.3030    6.2320    0.0000 C   0  0  0  0  0  0  0  0  0  0  0  0
   -5.5165    7.1137    0.0000 C   0  0  0  0  0  0  0  0  0  0  0  0
   -5.3597    8.6055    0.0000 C   0  0  0  0  0  0  0  0  0  0  0  0
   -6.5733    9.4872    0.0000 C   0  0  0  0  0  0  0  0  0  0  0  0
   -7.9436    8.8771    0.0000 C   0  0  0  0  0  0  0  0  0  0  0  0
   -8.1004    7.3853    0.0000 C   0  0  0  0  0  0  0  0  0  0  0  0
   -6.8869    6.5036    0.0000 C   0  0  0  0  0  0  0  0  0  0  0  0
   -5.8301    4.1301    0.0000 C   0  0  0  0  0  0  0  0  0  0  0  0
   -5.9869    2.6383    0.0000 O   0  0  0  0  0  0  0  0  0  0  0  0
   -7.0436    5.0118    0.0000 O   0  0  0  0  0  0  0  0  0  0  0  0
   -2.1895    1.4851    0.0000 C   0  0  0  0  0  0  0  0  0  0  0  0
   -0.8192    2.0952    0.0000 C   0  0  0  0  0  0  0  0  0  0  0  0
    0.3943    1.2135    0.0000 C   0  0  0  0  0  0  0  0  0  0  0  0
    1.2760    0.0000    0.0000 C   0  0  0  0  0  0  0  0  0  0  0  0
    0.3943   -1.2135    0.0000 C   0  0  0  0  0  0  0  0  0  0  0  0
   -1.0323   -0.7500    0.0000 C   0  0  0  0  0  0  0  0  0  0  0  0
   -2.3463   -0.0067    0.0000 C   0  0  0  0  0  0  0  0  0  0  0  0
   -1.0323    0.7500    0.0000 C   0  0  0  0  0  0  0  0  0  0  0  0
   -2.2458    1.6317    0.0000 C   0  0  0  0  0  0  0  0  0  0  0  0
   -3.6161    1.0216    0.0000 O   0  0  0  0  0  0  0  0  0  0  0  0
   -2.0890    3.1235    0.0000 N   0  0  0  0  0  0  0  0  0  0  0  0
   -3.3025    4.0051    0.0000 C   0  0  0  0  0  0  0  0  0  0  0  0
   -3.1458    5.4969    0.0000 C   0  0  0  0  0  0  0  0  0  0  0  0
   -4.3593    6.3786    0.0000 C   0  0  0  0  0  0  0  0  0  0  0  0
   -5.7296    5.7685    0.0000 C   0  0  0  0  0  0  0  0  0  0  0  0
   -5.8864    4.2767    0.0000 C   0  0  0  0  0  0  0  0  0  0  0  0
   -4.6729    3.3950    0.0000 C   0  0  0  0  0  0  0  0  0  0  0  0
   -4.5161    4.8868    0.0000 C   0  0  0  0  0  0  0  0  0  0  0  0
   -3.3025    4.0051    0.0000 C   0  0  0  0  0  0  0  0  0  0  0  0
   -3.8157    2.5956    0.0000 O   0  0  0  0  0  0  0  0  0  0  0  0
   -1.9322    4.6152    0.0000 N   0  0  0  0  0  0  0  0  0  0  0  0
   -0.7187    3.7336    0.0000 C   0  0  0  0  0  0  0  0  0  0  0  0
    0.6516    4.3437    0.0000 C   0  0  0  0  0  0  0  0  0  0  0  0
    1.8651    3.4620    0.0000 C   0  0  0  0  0  0  0  0  0  0  0  0
    1.7083    1.9702    0.0000 C   0  0  0  0  0  0  0  0  0  0  0  0
    2.9219    1.0885    0.0000 C   0  0  0  0  0  0  0  0  0  0  0  0
    4.2922    1.6986    0.0000 C   0  0  0  0  0  0  0  0  0  0  0  0
    4.4490    3.1904    0.0000 C   0  0  0  0  0  0  0  0  0  0  0  0
    3.2355    4.0721    0.0000 C   0  0  0  0  0  0  0  0  0  0  0  0
   -0.8755    2.2418    0.0000 C   0  0  0  0  0  0  0  0  0  0  0  0
   -2.2458    1.6317    0.0000 O   0  0  0  0  0  0  0  0  0  0  0  0
    0.3380    1.3601    0.0000 N   0  0  0  0  0  0  0  0  0  0  0  0
    0.1812   -0.1317    0.0000 C   0  0  0  0  0  0  0  0  0  0  0  0
    1.3948   -1.0134    0.0000 C   0  0  0  0  0  0  0  0  0  0  0  0
    1.2380   -2.5051    0.0000 C   0  0  0  0  0  0  0  0  0  0  0  0
   -0.1323   -3.1152    0.0000 C   0  0  0  0  0  0  0  0  0  0  0  0
   -0.2891   -4.6070    0.0000 C   0  0  0  0  0  0  0  0  0  0  0  0
    0.9244   -5.4887    0.0000 C   0  0  0  0  0  0  0  0  0  0  0  0
    2.2947   -4.8786    0.0000 C   0  0  0  0  0  0  0  0  0  0  0  0
    2.4515   -3.3868    0.0000 C   0  0  0  0  0  0  0  0  0  0  0  0
   -1.1891   -0.7418    0.0000 C   0  0  0  0  0  0  0  0  0  0  0  0
   -2.5799   -0.1799    0.0000 O   0  0  0  0  0  0  0  0  0  0  0  0
   -1.3459   -2.2336    0.0000 O   0  0  0  0  0  0  0  0  0  0  0  0
  1  2  2  0
  2  3  1  0
  3  4  1  0
  4  5  1  0
  5  6  1  0
  6  7  2  0
  7  8  1  0
  8  9  2  0
  9 10  1  0
 10 11  2  0
  4 12  1  0
 12 13  2  0
 12 14  1  0
  2 15  1  0
 15 16  1  0
 16 17  1  0
 17 18  1  0
 18 19  1  0
 19 20  1  0
 20 21  1  0
 20 22  1  0
 22 23  1  0
 23 24  2  0
 23 25  1  0
 25 26  1  0
 26 27  1  0
 27 28  1  0
 28 29  1  0
 29 30  1  0
 30 31  1  0
 30 32  1  0
 32 33  1  0
 33 34  2  0
 33 35  1  0
 35 36  1  0
 36 37  1  0
 37 38  1  0
 38 39  2  0
 39 40  1  0
 40 41  2  0
 41 42  1  0
 42 43  2  0
 36 44  1  0
 44 45  2  0
 44 46  1  0
 46 47  1  0
 47 48  1  0
 48 49  1  0
 49 50  2  0
 50 51  1  0
 51 52  2  0
 52 53  1  0
 53 54  2  0
 47 55  1  0
 55 56  2  0
 55 57  1  0
 11  6  1  0
 21 15  1  0
 31 26  1  0
 43 38  1  0
 54 49  1  0
 22 17  1  0
 32 28  1  0
M  END
>  <Title>  (121) 
idAALEgen6

$$$$

     RDKit          2D

 18 19  0  0  0  0  0  0  0  0999 V2000
    3.4598   -1.5000    0.0000 C   0  0  0  0  0  0  0  0  0  0  0  0
    3.4598    0.0000    0.0000 C   0  0  0  0  0  0  0  0  0  0  0  0
    3.4598    1.5000    0.0000 C   0  0  0  0  0  0  0  0  0  0  0  0
    4.9598    0.0000    0.0000 C   0  0  0  0  0  0  0  0  0  0  0  0
    1.9598    0.0000    0.0000 C   0  0  0  0  0  0  0  0  0  0  0  0
    1.3858   -1.3858    0.0000 C   0  0  0  0  0  0  0  0  0  0  0  0
   -0.0000   -1.9598    0.0000 C   0  0  0  0  0  0  0  0  0  0  0  0
   -1.3858   -1.3858    0.0000 C   0  0  0  0  0  0  0  0  0  0  0  0
   -1.9598    0.0000    0.0000 C   0  0  0  0  0  0  0  0  0  0  0  0
   -1.3858    1.3858    0.0000 C   0  0  0  0  0  0  0  0  0  0  0  0
   -2.4465    2.4465    0.0000 C   0  0  0  0  0  0  0  0  0  0  0  0
   -2.0583    3.8954    0.0000 C   0  0  0  0  0  0  0  0  0  0  0  0
   -3.1189    4.9560    0.0000 C   0  0  0  0  0  0  0  0  0  0  0  0
   -4.5678    4.5678    0.0000 C   0  0  0  0  0  0  0  0  0  0  0  0
   -4.9560    3.1189    0.0000 C   0  0  0  0  0  0  0  0  0  0  0  0
   -3.8954    2.0583    0.0000 C   0  0  0  0  0  0  0  0  0  0  0  0
    0.0000    1.9598    0.0000 C   0  0  0  0  0  0  0  0  0  0  0  0
    1.3858    1.3858    0.0000 C   0  0  0  0  0  0  0  0  0  0  0  0
  1  2  1  0
  2  3  1  0
  2  4  1  0
  2  5  1  0
  5  6  1  0
  6  7  1  0
  7  8  1  0
  8  9  1  0
  9 10  1  0
 10 11  1  0
 11 12  1  0
 12 13  1  0
 13 14  1  0
 14 15  1  0
 15 16  1  0
 10 17  1  0
 17 18  1  0
 18  5  1  0
 16 11  1  0
M  END
>  <Title>  (122) 
idAALFgen6

$$$$

     RDKit          2D

 59 64  0  0  0  0  0  0  0  0999 V2000
    0.2128    5.3728    0.0000 C   0  0  0  0  0  0  0  0  0  0  0  0
   -1.1254    4.6950    0.0000 C   0  0  0  0  0  0  0  0  0  0  0  0
   -2.5878    4.3613    0.0000 C   0  0  0  0  0  0  0  0  0  0  0  0
   -1.4592    6.1574    0.0000 C   0  0  0  0  0  0  0  0  0  0  0  0
   -0.7916    3.2327    0.0000 C   0  0  0  0  0  0  0  0  0  0  0  0
    0.6418    2.7905    0.0000 C   0  0  0  0  0  0  0  0  0  0  0  0
    1.0777    1.3515    0.0000 C   0  0  0  0  0  0  0  0  0  0  0  0
    1.7286    0.0000    0.0000 C   0  0  0  0  0  0  0  0  0  0  0  0
    1.0777   -1.3515    0.0000 C   0  0  0  0  0  0  0  0  0  0  0  0
   -0.3846   -1.6852    0.0000 C   0  0  0  0  0  0  0  0  0  0  0  0
   -1.5574   -0.7500    0.0000 C   0  0  0  0  0  0  0  0  0  0  0  0
   -2.9088   -1.4008    0.0000 C   0  0  0  0  0  0  0  0  0  0  0  0
   -4.1482   -0.5558    0.0000 C   0  0  0  0  0  0  0  0  0  0  0  0
   -5.4997   -1.2067    0.0000 C   0  0  0  0  0  0  0  0  0  0  0  0
   -5.7675   -2.6826    0.0000 C   0  0  0  0  0  0  0  0  0  0  0  0
   -7.2539   -2.8839    0.0000 C   0  0  0  0  0  0  0  0  0  0  0  0
   -7.9047   -1.5325    0.0000 C   0  0  0  0  0  0  0  0  0  0  0  0
   -6.8205   -0.4959    0.0000 C   0  0  0  0  0  0  0  0  0  0  0  0
   -1.5574    0.7500    0.0000 C   0  0  0  0  0  0  0  0  0  0  0  0
   -2.9088    1.4008    0.0000 C   0  0  0  0  0  0  0  0  0  0  0  0
   -1.8912    2.2124    0.0000 C   0  0  0  0  0  0  0  0  0  0  0  0
   -0.3846    1.6852    0.0000 N   0  0  0  0  0  0  0  0  0  0  0  0
   -0.7184    3.1476    0.0000 C   0  0  0  0  0  0  0  0  0  0  0  0
    0.3812    4.1679    0.0000 C   0  0  0  0  0  0  0  0  0  0  0  0
    1.8145    3.7258    0.0000 O   0  0  0  0  0  0  0  0  0  0  0  0
    0.0474    5.6303    0.0000 N   0  0  0  0  0  0  0  0  0  0  0  0
    1.1469    6.6505    0.0000 C   0  0  0  0  0  0  0  0  0  0  0  0
    0.8132    8.1129    0.0000 C   0  0  0  0  0  0  0  0  0  0  0  0
    1.9127    9.1332    0.0000 C   0  0  0  0  0  0  0  0  0  0  0  0
    3.3461    8.6911    0.0000 C   0  0  0  0  0  0  0  0  0  0  0  0
    4.4457    9.7113    0.0000 C   0  0  0  0  0  0  0  0  0  0  0  0
    4.1119   11.1737    0.0000 C   0  0  0  0  0  0  0  0  0  0  0  0
    2.6785   11.6158    0.0000 C   0  0  0  0  0  0  0  0  0  0  0  0
    1.5790   10.5956    0.0000 C   0  0  0  0  0  0  0  0  0  0  0  0
    2.5803    6.2084    0.0000 C   0  0  0  0  0  0  0  0  0  0  0  0
    2.9141    4.7460    0.0000 O   0  0  0  0  0  0  0  0  0  0  0  0
    3.6799    7.2287    0.0000 N   0  0  0  0  0  0  0  0  0  0  0  0
    5.1132    6.7865    0.0000 C   0  0  0  0  0  0  0  0  0  0  0  0
    6.2128    7.8068    0.0000 C   0  0  0  0  0  0  0  0  0  0  0  0
    7.6462    7.3647    0.0000 C   0  0  0  0  0  0  0  0  0  0  0  0
    7.9800    5.9023    0.0000 C   0  0  0  0  0  0  0  0  0  0  0  0
    9.4133    5.4601    0.0000 C   0  0  0  0  0  0  0  0  0  0  0  0
   10.5129    6.4804    0.0000 C   0  0  0  0  0  0  0  0  0  0  0  0
   10.1791    7.9428    0.0000 C   0  0  0  0  0  0  0  0  0  0  0  0
    8.7458    8.3849    0.0000 C   0  0  0  0  0  0  0  0  0  0  0  0
    5.4470    5.3241    0.0000 C   0  0  0  0  0  0  0  0  0  0  0  0
    4.3474    4.3039    0.0000 O   0  0  0  0  0  0  0  0  0  0  0  0
    6.8804    4.8820    0.0000 N   0  0  0  0  0  0  0  0  0  0  0  0
    7.2142    3.4196    0.0000 C   0  0  0  0  0  0  0  0  0  0  0  0
    8.6475    2.9775    0.0000 C   0  0  0  0  0  0  0  0  0  0  0  0
    8.9813    1.5151    0.0000 C   0  0  0  0  0  0  0  0  0  0  0  0
    7.8817    0.4948    0.0000 C   0  0  0  0  0  0  0  0  0  0  0  0
    8.2155   -0.9676    0.0000 C   0  0  0  0  0  0  0  0  0  0  0  0
    9.6489   -1.4097    0.0000 C   0  0  0  0  0  0  0  0  0  0  0  0
   10.7484   -0.3894    0.0000 C   0  0  0  0  0  0  0  0  0  0  0  0
   10.4147    1.0730    0.0000 C   0  0  0  0  0  0  0  0  0  0  0  0
    6.1146    2.3994    0.0000 C   0  0  0  0  0  0  0  0  0  0  0  0
    4.6812    2.8415    0.0000 O   0  0  0  0  0  0  0  0  0  0  0  0
    6.4484    0.9370    0.0000 O   0  0  0  0  0  0  0  0  0  0  0  0
  1  2  1  0
  2  3  1  0
  2  4  1  0
  2  5  1  0
  5  6  1  0
  6  7  1  0
  7  8  1  0
  8  9  1  0
  9 10  1  0
 10 11  1  0
 11 12  1  0
 12 13  1  0
 13 14  1  0
 14 15  1  0
 15 16  1  0
 16 17  1  0
 17 18  1  0
 11 19  1  0
 19 20  1  0
 19 21  1  0
 19 22  1  0
 22 23  1  0
 23 24  1  0
 24 25  2  0
 24 26  1  0
 26 27  1  0
 27 28  1  0
 28 29  1  0
 29 30  2  0
 30 31  1  0
 31 32  2  0
 32 33  1  0
 33 34  2  0
 27 35  1  0
 35 36  2  0
 35 37  1  0
 37 38  1  0
 38 39  1  0
 39 40  1  0
 40 41  2  0
 41 42  1  0
 42 43  2  0
 43 44  1  0
 44 45  2  0
 38 46  1  0
 46 47  2  0
 46 48  1  0
 48 49  1  0
 49 50  1  0
 50 51  1  0
 51 52  2  0
 52 53  1  0
 53 54  2  0
 54 55  1  0
 55 56  2  0
 49 57  1  0
 57 58  2  0
 57 59  1  0
 21  5  1  0
 34 29  1  0
 45 40  1  0
 56 51  1  0
 22  7  1  0
 18 14  1  0
M  END
>  <Title>  (123) 
idAALGgen6

$$$$

     RDKit          2D

 77 83  0  0  0  0  0  0  0  0999 V2000
    3.9018    2.4465    0.0000 C   0  0  0  0  0  0  0  0  0  0  0  0
    2.7750    1.4564    0.0000 C   0  0  0  0  0  0  0  0  0  0  0  0
    4.2640    1.2756    0.0000 C   0  0  0  0  0  0  0  0  0  0  0  0
    5.1651    2.4748    0.0000 C   0  0  0  0  0  0  0  0  0  0  0  0
    6.6542    2.2940    0.0000 C   0  0  0  0  0  0  0  0  0  0  0  0
    7.5553    3.4931    0.0000 C   0  0  0  0  0  0  0  0  0  0  0  0
    7.1400    4.9345    0.0000 O   0  0  0  0  0  0  0  0  0  0  0  0
    9.0444    3.3123    0.0000 C   0  0  0  0  0  0  0  0  0  0  0  0
    9.0727    1.8126    0.0000 O   0  0  0  0  0  0  0  0  0  0  0  0
   10.4633    2.8259    0.0000 C   0  0  0  0  0  0  0  0  0  0  0  0
   11.3644    4.0250    0.0000 C   0  0  0  0  0  0  0  0  0  0  0  0
   10.5024    5.2526    0.0000 C   0  0  0  0  0  0  0  0  0  0  0  0
   10.9889    6.6715    0.0000 O   0  0  0  0  0  0  0  0  0  0  0  0
    9.0685    4.8121    0.0000 C   0  0  0  0  0  0  0  0  0  0  0  0
    4.5772    3.8547    0.0000 C   0  0  0  0  0  0  0  0  0  0  0  0
    3.8326    4.1395    0.0000 O   0  0  0  0  0  0  0  0  0  0  0  0
    5.4783    5.0539    0.0000 C   0  0  0  0  0  0  0  0  0  0  0  0
    4.8904    6.4339    0.0000 O   0  0  0  0  0  0  0  0  0  0  0  0
    3.1339    0.0000    0.0000 C   0  0  0  0  0  0  0  0  0  0  0  0
    2.7750   -1.4564    0.0000 C   0  0  0  0  0  0  0  0  0  0  0  0
    1.7803   -2.5792    0.0000 C   0  0  0  0  0  0  0  0  0  0  0  0
    0.3778   -3.1111    0.0000 C   0  0  0  0  0  0  0  0  0  0  0  0
   -1.1113   -2.9303    0.0000 C   0  0  0  0  0  0  0  0  0  0  0  0
   -2.3458   -2.0782    0.0000 C   0  0  0  0  0  0  0  0  0  0  0  0
   -3.0429   -0.7500    0.0000 C   0  0  0  0  0  0  0  0  0  0  0  0
   -3.0429    0.7500    0.0000 C   0  0  0  0  0  0  0  0  0  0  0  0
   -2.3458    2.0782    0.0000 C   0  0  0  0  0  0  0  0  0  0  0  0
   -1.1113    2.9303    0.0000 C   0  0  0  0  0  0  0  0  0  0  0  0
    0.3778    3.1111    0.0000 C   0  0  0  0  0  0  0  0  0  0  0  0
    1.7803    2.5792    0.0000 C   0  0  0  0  0  0  0  0  0  0  0  0
    3.1828    3.1111    0.0000 C   0  0  0  0  0  0  0  0  0  0  0  0
    3.4056    3.8765    0.0000 O   0  0  0  0  0  0  0  0  0  0  0  0
    4.3447    2.1624    0.0000 N   0  0  0  0  0  0  0  0  0  0  0  0
    5.7472    2.6943    0.0000 C   0  0  0  0  0  0  0  0  0  0  0  0
    6.9091    1.7457    0.0000 C   0  0  0  0  0  0  0  0  0  0  0  0
    8.3117    2.2776    0.0000 C   0  0  0  0  0  0  0  0  0  0  0  0
    9.4736    1.3289    0.0000 C   0  0  0  0  0  0  0  0  0  0  0  0
   10.8761    1.8608    0.0000 C   0  0  0  0  0  0  0  0  0  0  0  0
   11.1167    3.3414    0.0000 C   0  0  0  0  0  0  0  0  0  0  0  0
    9.9548    4.2900    0.0000 C   0  0  0  0  0  0  0  0  0  0  0  0
    8.5523    3.7581    0.0000 C   0  0  0  0  0  0  0  0  0  0  0  0
    5.9879    4.1749    0.0000 C   0  0  0  0  0  0  0  0  0  0  0  0
    5.0900    5.3765    0.0000 O   0  0  0  0  0  0  0  0  0  0  0  0
    7.3151    4.8738    0.0000 O   0  0  0  0  0  0  0  0  0  0  0  0
    1.7803    4.0792    0.0000 C   0  0  0  0  0  0  0  0  0  0  0  0
    3.0793    4.8292    0.0000 C   0  0  0  0  0  0  0  0  0  0  0  0
    3.0793    6.3292    0.0000 C   0  0  0  0  0  0  0  0  0  0  0  0
    2.6158    7.7558    0.0000 C   0  0  0  0  0  0  0  0  0  0  0  0
    1.1158    7.7558    0.0000 C   0  0  0  0  0  0  0  0  0  0  0  0
    0.6523    6.3292    0.0000 C   0  0  0  0  0  0  0  0  0  0  0  0
    0.4812    4.8292    0.0000 C   0  0  0  0  0  0  0  0  0  0  0  0
    1.8658    5.4475    0.0000 C   0  0  0  0  0  0  0  0  0  0  0  0
    1.8658    3.9475    0.0000 C   0  0  0  0  0  0  0  0  0  0  0  0
    3.3077    3.5341    0.0000 O   0  0  0  0  0  0  0  0  0  0  0  0
    0.5668    3.1975    0.0000 N   0  0  0  0  0  0  0  0  0  0  0  0
    0.5668    1.6975    0.0000 C   0  0  0  0  0  0  0  0  0  0  0  0
   -0.7323    0.9475    0.0000 C   0  0  0  0  0  0  0  0  0  0  0  0
   -0.7323   -0.5525    0.0000 C   0  0  0  0  0  0  0  0  0  0  0  0
   -2.0313   -1.3025    0.0000 C   0  0  0  0  0  0  0  0  0  0  0  0
   -2.0313   -2.8025    0.0000 C   0  0  0  0  0  0  0  0  0  0  0  0
   -0.7323   -3.5525    0.0000 C   0  0  0  0  0  0  0  0  0  0  0  0
    0.5668   -2.8025    0.0000 C   0  0  0  0  0  0  0  0  0  0  0  0
    0.5668   -1.3025    0.0000 C   0  0  0  0  0  0  0  0  0  0  0  0
    1.8658    0.9475    0.0000 C   0  0  0  0  0  0  0  0  0  0  0  0
    3.3077    1.3609    0.0000 O   0  0  0  0  0  0  0  0  0  0  0  0
    1.8658   -0.5525    0.0000 N   0  0  0  0  0  0  0  0  0  0  0  0
    3.1648   -1.3025    0.0000 C   0  0  0  0  0  0  0  0  0  0  0  0
    3.1648   -2.8025    0.0000 C   0  0  0  0  0  0  0  0  0  0  0  0
    4.4639   -3.5525    0.0000 C   0  0  0  0  0  0  0  0  0  0  0  0
    4.4639   -5.0525    0.0000 C   0  0  0  0  0  0  0  0  0  0  0  0
    5.7629   -5.8025    0.0000 C   0  0  0  0  0  0  0  0  0  0  0  0
    7.0619   -5.0525    0.0000 C   0  0  0  0  0  0  0  0  0  0  0  0
    7.0619   -3.5525    0.0000 C   0  0  0  0  0  0  0  0  0  0  0  0
    5.7629   -2.8025    0.0000 C   0  0  0  0  0  0  0  0  0  0  0  0
    4.4639   -0.5525    0.0000 C   0  0  0  0  0  0  0  0  0  0  0  0
    4.8268    0.9029    0.0000 O   0  0  0  0  0  0  0  0  0  0  0  0
    5.7629   -1.3025    0.0000 O   0  0  0  0  0  0  0  0  0  0  0  0
  1  2  1  0
  2  3  1  0
  3  4  1  0
  4  5  1  0
  5  6  1  0
  6  7  1  0
  6  8  1  0
  8  9  1  0
  8 10  1  0
 10 11  1  0
 11 12  1  0
 12 13  1  0
 12 14  1  0
  4 15  1  0
 15 16  1  0
 15 17  1  0
 17 18  1  0
  2 19  1  0
 19 20  1  0
 20 21  1  0
 21 22  1  0
 22 23  1  0
 23 24  1  0
 24 25  1  0
 25 26  1  0
 26 27  1  0
 27 28  1  0
 28 29  1  0
 29 30  1  0
 30 31  1  0
 31 32  2  0
 31 33  1  0
 33 34  1  0
 34 35  1  0
 35 36  1  0
 36 37  2  0
 37 38  1  0
 38 39  2  0
 39 40  1  0
 40 41  2  0
 34 42  1  0
 42 43  2  0
 42 44  1  0
 30 45  1  0
 45 46  1  0
 46 47  1  0
 47 48  1  0
 48 49  1  0
 49 50  1  0
 50 51  1  0
 50 52  1  0
 52 53  1  0
 53 54  2  0
 53 55  1  0
 55 56  1  0
 56 57  1  0
 57 58  1  0
 58 59  2  0
 59 60  1  0
 60 61  2  0
 61 62  1  0
 62 63  2  0
 56 64  1  0
 64 65  2  0
 64 66  1  0
 66 67  1  0
 67 68  1  0
 68 69  1  0
 69 70  2  0
 70 71  1  0
 71 72  2  0
 72 73  1  0
 73 74  2  0
 67 75  1  0
 75 76  2  0
 75 77  1  0
 30  2  1  0
 41 36  1  0
 51 45  1  0
 63 58  1  0
 74 69  1  0
 14  8  1  0
 52 47  1  0
M  END
>  <Title>  (124) 
idAALHgen6

$$$$

     RDKit          2D

 47 50  0  0  0  0  0  0  0  0999 V2000
   -6.0000  -10.3923    0.0000 O   0  0  0  0  0  0  0  0  0  0  0  0
   -5.2500   -9.0933    0.0000 C   0  0  0  0  0  0  0  0  0  0  0  0
   -3.7500   -9.0933    0.0000 O   0  0  0  0  0  0  0  0  0  0  0  0
   -6.0000   -7.7942    0.0000 C   0  0  0  0  0  0  0  0  0  0  0  0
   -7.5000   -7.7942    0.0000 C   0  0  0  0  0  0  0  0  0  0  0  0
   -8.2500   -6.4952    0.0000 C   0  0  0  0  0  0  0  0  0  0  0  0
   -9.7500   -6.4952    0.0000 C   0  0  0  0  0  0  0  0  0  0  0  0
  -10.5000   -5.1962    0.0000 C   0  0  0  0  0  0  0  0  0  0  0  0
   -9.7500   -3.8971    0.0000 C   0  0  0  0  0  0  0  0  0  0  0  0
   -8.2500   -3.8971    0.0000 C   0  0  0  0  0  0  0  0  0  0  0  0
   -7.5000   -5.1962    0.0000 C   0  0  0  0  0  0  0  0  0  0  0  0
   -5.2500   -6.4952    0.0000 N   0  0  0  0  0  0  0  0  0  0  0  0
   -3.7500   -6.4952    0.0000 C   0  0  0  0  0  0  0  0  0  0  0  0
   -3.0000   -7.7942    0.0000 O   0  0  0  0  0  0  0  0  0  0  0  0
   -3.0000   -5.1962    0.0000 C   0  0  0  0  0  0  0  0  0  0  0  0
   -1.5000   -5.1962    0.0000 C   0  0  0  0  0  0  0  0  0  0  0  0
   -0.7500   -3.8971    0.0000 C   0  0  0  0  0  0  0  0  0  0  0  0
   -1.5000   -2.5981    0.0000 C   0  0  0  0  0  0  0  0  0  0  0  0
   -0.7500   -1.2990    0.0000 C   0  0  0  0  0  0  0  0  0  0  0  0
    0.7500   -1.2990    0.0000 C   0  0  0  0  0  0  0  0  0  0  0  0
    1.5000   -2.5981    0.0000 C   0  0  0  0  0  0  0  0  0  0  0  0
    0.7500   -3.8971    0.0000 C   0  0  0  0  0  0  0  0  0  0  0  0
   -3.7500   -3.8971    0.0000 N   0  0  0  0  0  0  0  0  0  0  0  0
   -5.2500   -3.8971    0.0000 C   0  0  0  0  0  0  0  0  0  0  0  0
   -6.0000   -5.1962    0.0000 O   0  0  0  0  0  0  0  0  0  0  0  0
   -6.0000   -2.5981    0.0000 C   0  0  0  0  0  0  0  0  0  0  0  0
   -7.5000   -2.5981    0.0000 C   0  0  0  0  0  0  0  0  0  0  0  0
   -8.2500   -1.2990    0.0000 C   0  0  0  0  0  0  0  0  0  0  0  0
   -7.5000    0.0000    0.0000 C   0  0  0  0  0  0  0  0  0  0  0  0
   -8.2500    1.2990    0.0000 C   0  0  0  0  0  0  0  0  0  0  0  0
   -9.7500    1.2990    0.0000 C   0  0  0  0  0  0  0  0  0  0  0  0
  -10.5000    0.0000    0.0000 C   0  0  0  0  0  0  0  0  0  0  0  0
   -9.7500   -1.2990    0.0000 C   0  0  0  0  0  0  0  0  0  0  0  0
   -5.2500   -1.2990    0.0000 N   0  0  0  0  0  0  0  0  0  0  0  0
   -3.7500   -1.2990    0.0000 C   0  0  0  0  0  0  0  0  0  0  0  0
   -3.0000   -2.5981    0.0000 O   0  0  0  0  0  0  0  0  0  0  0  0
   -3.0000   -0.0000    0.0000 C   0  0  0  0  0  0  0  0  0  0  0  0
   -1.5000   -0.0000    0.0000 C   0  0  0  0  0  0  0  0  0  0  0  0
   -0.7500    1.2990    0.0000 C   0  0  0  0  0  0  0  0  0  0  0  0
   -1.5000    2.5981    0.0000 C   0  0  0  0  0  0  0  0  0  0  0  0
   -0.7500    3.8971    0.0000 C   0  0  0  0  0  0  0  0  0  0  0  0
    0.7500    3.8971    0.0000 C   0  0  0  0  0  0  0  0  0  0  0  0
    1.5000    2.5981    0.0000 C   0  0  0  0  0  0  0  0  0  0  0  0
    0.7500    1.2990    0.0000 C   0  0  0  0  0  0  0  0  0  0  0  0
   -3.7500    1.2990    0.0000 C   0  0  0  0  0  0  0  0  0  0  0  0
   -5.2500    1.2990    0.0000 O   0  0  0  0  0  0  0  0  0  0  0  0
   -3.0000    2.5981    0.0000 O   0  0  0  0  0  0  0  0  0  0  0  0
  1  2  2  0
  2  3  1  0
  2  4  1  0
  4  5  1  0
  5  6  1  0
  6  7  2  0
  7  8  1  0
  8  9  2  0
  9 10  1  0
 10 11  2  0
  4 12  1  0
 12 13  1  0
 13 14  2  0
 13 15  1  0
 15 16  1  0
 16 17  1  0
 17 18  2  0
 18 19  1  0
 19 20  2  0
 20 21  1  0
 21 22  2  0
 15 23  1  0
 23 24  1  0
 24 25  2  0
 24 26  1  0
 26 27  1  0
 27 28  1  0
 28 29  2  0
 29 30  1  0
 30 31  2  0
 31 32  1  0
 32 33  2  0
 26 34  1  0
 34 35  1  0
 35 36  2  0
 35 37  1  0
 37 38  1  0
 38 39  1  0
 39 40  2  0
 40 41  1  0
 41 42  2  0
 42 43  1  0
 43 44  2  0
 37 45  1  0
 45 46  2  0
 45 47  1  0
 11  6  1  0
 22 17  1  0
 33 28  1  0
 44 39  1  0
M  END
>  <Title>  (125) 
idAALIgen6

$$$$

     RDKit          2D

 47 50  0  0  0  0  0  0  0  0999 V2000
    0.7500   -6.4952    0.0000 C   0  0  0  0  0  0  0  0  0  0  0  0
    1.5000   -5.1962    0.0000 C   0  0  0  0  0  0  0  0  0  0  0  0
    3.0000   -5.1962    0.0000 O   0  0  0  0  0  0  0  0  0  0  0  0
    0.7500   -3.8971    0.0000 C   0  0  0  0  0  0  0  0  0  0  0  0
    1.5000   -2.5981    0.0000 C   0  0  0  0  0  0  0  0  0  0  0  0
    0.7500   -1.2990    0.0000 C   0  0  0  0  0  0  0  0  0  0  0  0
    1.5000    0.0000    0.0000 C   0  0  0  0  0  0  0  0  0  0  0  0
    0.7500    1.2990    0.0000 C   0  0  0  0  0  0  0  0  0  0  0  0
   -0.7500    1.2990    0.0000 C   0  0  0  0  0  0  0  0  0  0  0  0
   -1.5000    0.0000    0.0000 C   0  0  0  0  0  0  0  0  0  0  0  0
   -0.7500   -1.2990    0.0000 C   0  0  0  0  0  0  0  0  0  0  0  0
   -0.7500   -3.8971    0.0000 N   0  0  0  0  0  0  0  0  0  0  0  0
   -1.5000   -5.1962    0.0000 C   0  0  0  0  0  0  0  0  0  0  0  0
   -0.7500   -6.4952    0.0000 O   0  0  0  0  0  0  0  0  0  0  0  0
   -3.0000   -5.1962    0.0000 C   0  0  0  0  0  0  0  0  0  0  0  0
   -3.7500   -6.4952    0.0000 C   0  0  0  0  0  0  0  0  0  0  0  0
   -5.2500   -6.4952    0.0000 C   0  0  0  0  0  0  0  0  0  0  0  0
   -6.0000   -5.1962    0.0000 C   0  0  0  0  0  0  0  0  0  0  0  0
   -7.5000   -5.1962    0.0000 C   0  0  0  0  0  0  0  0  0  0  0  0
   -8.2500   -6.4952    0.0000 C   0  0  0  0  0  0  0  0  0  0  0  0
   -7.5000   -7.7942    0.0000 C   0  0  0  0  0  0  0  0  0  0  0  0
   -6.0000   -7.7942    0.0000 C   0  0  0  0  0  0  0  0  0  0  0  0
   -3.7500   -3.8971    0.0000 C   0  0  0  0  0  0  0  0  0  0  0  0
   -3.0000   -2.5981    0.0000 O   0  0  0  0  0  0  0  0  0  0  0  0
   -5.2500   -3.8971    0.0000 N   0  0  0  0  0  0  0  0  0  0  0  0
   -6.0000   -2.5981    0.0000 C   0  0  0  0  0  0  0  0  0  0  0  0
   -7.5000   -2.5981    0.0000 C   0  0  0  0  0  0  0  0  0  0  0  0
   -8.2500   -1.2990    0.0000 C   0  0  0  0  0  0  0  0  0  0  0  0
   -7.5000    0.0000    0.0000 C   0  0  0  0  0  0  0  0  0  0  0  0
   -8.2500    1.2990    0.0000 C   0  0  0  0  0  0  0  0  0  0  0  0
   -9.7500    1.2990    0.0000 C   0  0  0  0  0  0  0  0  0  0  0  0
  -10.5000    0.0000    0.0000 C   0  0  0  0  0  0  0  0  0  0  0  0
   -9.7500   -1.2990    0.0000 C   0  0  0  0  0  0  0  0  0  0  0  0
   -5.2500   -1.2990    0.0000 C   0  0  0  0  0  0  0  0  0  0  0  0
   -3.7500   -1.2990    0.0000 O   0  0  0  0  0  0  0  0  0  0  0  0
   -6.0000    0.0000    0.0000 N   0  0  0  0  0  0  0  0  0  0  0  0
   -5.2500    1.2990    0.0000 C   0  0  0  0  0  0  0  0  0  0  0  0
   -6.0000    2.5981    0.0000 C   0  0  0  0  0  0  0  0  0  0  0  0
   -5.2500    3.8971    0.0000 C   0  0  0  0  0  0  0  0  0  0  0  0
   -3.7500    3.8971    0.0000 C   0  0  0  0  0  0  0  0  0  0  0  0
   -3.0000    5.1962    0.0000 C   0  0  0  0  0  0  0  0  0  0  0  0
   -3.7500    6.4952    0.0000 C   0  0  0  0  0  0  0  0  0  0  0  0
   -5.2500    6.4952    0.0000 C   0  0  0  0  0  0  0  0  0  0  0  0
   -6.0000    5.1962    0.0000 C   0  0  0  0  0  0  0  0  0  0  0  0
   -3.7500    1.2990    0.0000 C   0  0  0  0  0  0  0  0  0  0  0  0
   -3.0000    0.0000    0.0000 O   0  0  0  0  0  0  0  0  0  0  0  0
   -3.0000    2.5981    0.0000 O   0  0  0  0  0  0  0  0  0  0  0  0
  1  2  1  0
  2  3  1  0
  2  4  1  0
  4  5  1  0
  5  6  1  0
  6  7  2  0
  7  8  1  0
  8  9  2  0
  9 10  1  0
 10 11  2  0
  4 12  1  0
 12 13  1  0
 13 14  2  0
 13 15  1  0
 15 16  1  0
 16 17  1  0
 17 18  2  0
 18 19  1  0
 19 20  2  0
 20 21  1  0
 21 22  2  0
 15 23  1  0
 23 24  2  0
 23 25  1  0
 25 26  1  0
 26 27  1  0
 27 28  1  0
 28 29  2  0
 29 30  1  0
 30 31  2  0
 31 32  1  0
 32 33  2  0
 26 34  1  0
 34 35  2  0
 34 36  1  0
 36 37  1  0
 37 38  1  0
 38 39  1  0
 39 40  2  0
 40 41  1  0
 41 42  2  0
 42 43  1  0
 43 44  2  0
 37 45  1  0
 45 46  2  0
 45 47  1  0
 11  6  1  0
 22 17  1  0
 33 28  1  0
 44 39  1  0
M  END
>  <Title>  (126) 
idAALJgen6

$$$$

     RDKit          2D

 57 62  0  0  0  0  0  0  0  0999 V2000
    2.9888   -2.4152    0.0000 O   0  0  0  0  0  0  0  0  0  0  0  0
    1.5000   -2.5981    0.0000 C   0  0  0  0  0  0  0  0  0  0  0  0
    0.7500   -3.8971    0.0000 N   0  0  0  0  0  0  0  0  0  0  0  0
    1.5000   -5.1962    0.0000 C   0  0  0  0  0  0  0  0  0  0  0  0
    0.7500   -6.4952    0.0000 C   0  0  0  0  0  0  0  0  0  0  0  0
    1.5000   -7.7942    0.0000 C   0  0  0  0  0  0  0  0  0  0  0  0
    0.7500   -9.0933    0.0000 C   0  0  0  0  0  0  0  0  0  0  0  0
    1.5000  -10.3923    0.0000 C   0  0  0  0  0  0  0  0  0  0  0  0
    3.0000  -10.3923    0.0000 C   0  0  0  0  0  0  0  0  0  0  0  0
    3.7500   -9.0933    0.0000 C   0  0  0  0  0  0  0  0  0  0  0  0
    3.0000   -7.7942    0.0000 C   0  0  0  0  0  0  0  0  0  0  0  0
    3.0000   -5.1962    0.0000 C   0  0  0  0  0  0  0  0  0  0  0  0
    3.7500   -3.8971    0.0000 O   0  0  0  0  0  0  0  0  0  0  0  0
    3.7500   -6.4952    0.0000 N   0  0  0  0  0  0  0  0  0  0  0  0
    5.2500   -6.4952    0.0000 C   0  0  0  0  0  0  0  0  0  0  0  0
    6.0000   -7.7942    0.0000 C   0  0  0  0  0  0  0  0  0  0  0  0
    7.5000   -7.7942    0.0000 C   0  0  0  0  0  0  0  0  0  0  0  0
    8.2500   -9.0933    0.0000 C   0  0  0  0  0  0  0  0  0  0  0  0
    9.7500   -9.0933    0.0000 C   0  0  0  0  0  0  0  0  0  0  0  0
   10.5000   -7.7942    0.0000 C   0  0  0  0  0  0  0  0  0  0  0  0
    9.7500   -6.4952    0.0000 C   0  0  0  0  0  0  0  0  0  0  0  0
    8.2500   -6.4952    0.0000 C   0  0  0  0  0  0  0  0  0  0  0  0
    6.0000   -5.1962    0.0000 C   0  0  0  0  0  0  0  0  0  0  0  0
    5.2500   -3.8971    0.0000 O   0  0  0  0  0  0  0  0  0  0  0  0
    7.5000   -5.1962    0.0000 N   0  0  0  0  0  0  0  0  0  0  0  0
    8.2500   -3.8971    0.0000 C   0  0  0  0  0  0  0  0  0  0  0  0
    9.7500   -3.8971    0.0000 C   0  0  0  0  0  0  0  0  0  0  0  0
   10.5000   -2.5981    0.0000 C   0  0  0  0  0  0  0  0  0  0  0  0
   12.0000   -2.5981    0.0000 C   0  0  0  0  0  0  0  0  0  0  0  0
   12.7500   -1.2990    0.0000 C   0  0  0  0  0  0  0  0  0  0  0  0
   12.0000    0.0000    0.0000 C   0  0  0  0  0  0  0  0  0  0  0  0
   10.5000    0.0000    0.0000 C   0  0  0  0  0  0  0  0  0  0  0  0
    9.7500   -1.2990    0.0000 C   0  0  0  0  0  0  0  0  0  0  0  0
    7.5000   -2.5981    0.0000 C   0  0  0  0  0  0  0  0  0  0  0  0
    6.0000   -2.5981    0.0000 O   0  0  0  0  0  0  0  0  0  0  0  0
    8.2500   -1.2990    0.0000 O   0  0  0  0  0  0  0  0  0  0  0  0
    0.7500   -1.2990    0.0000 C   0  0  0  0  0  0  0  0  0  0  0  0
    1.5000    0.0000    0.0000 C   0  0  0  0  0  0  0  0  0  0  0  0
    0.7500    1.2990    0.0000 C   0  0  0  0  0  0  0  0  0  0  0  0
   -0.7500    1.2990    0.0000 C   0  0  0  0  0  0  0  0  0  0  0  0
   -1.5000    0.0000    0.0000 C   0  0  0  0  0  0  0  0  0  0  0  0
   -0.7500   -1.2990    0.0000 C   0  0  0  0  0  0  0  0  0  0  0  0
   -0.0000   -0.0000    0.0000 C   0  0  0  0  0  0  0  0  0  0  0  0
    0.7500   -1.2990    0.0000 C   0  0  0  0  0  0  0  0  0  0  0  0
    2.2500   -1.2990    0.0000 O   0  0  0  0  0  0  0  0  0  0  0  0
   -0.0000   -2.5981    0.0000 N   0  0  0  0  0  0  0  0  0  0  0  0
    0.7500   -3.8971    0.0000 C   0  0  0  0  0  0  0  0  0  0  0  0
   -0.0000   -5.1962    0.0000 C   0  0  0  0  0  0  0  0  0  0  0  0
    0.7500   -6.4952    0.0000 C   0  0  0  0  0  0  0  0  0  0  0  0
   -0.0000   -7.7942    0.0000 C   0  0  0  0  0  0  0  0  0  0  0  0
    0.7500   -9.0933    0.0000 C   0  0  0  0  0  0  0  0  0  0  0  0
    2.2500   -9.0933    0.0000 C   0  0  0  0  0  0  0  0  0  0  0  0
    3.0000   -7.7942    0.0000 C   0  0  0  0  0  0  0  0  0  0  0  0
    2.2500   -6.4952    0.0000 C   0  0  0  0  0  0  0  0  0  0  0  0
    2.2500   -3.8971    0.0000 C   0  0  0  0  0  0  0  0  0  0  0  0
    3.1528   -2.6992    0.0000 O   0  0  0  0  0  0  0  0  0  0  0  0
    3.2920   -4.9761    0.0000 O   0  0  0  0  0  0  0  0  0  0  0  0
  1  2  2  0
  2  3  1  0
  3  4  1  0
  4  5  1  0
  5  6  1  0
  6  7  2  0
  7  8  1  0
  8  9  2  0
  9 10  1  0
 10 11  2  0
  4 12  1  0
 12 13  2  0
 12 14  1  0
 14 15  1  0
 15 16  1  0
 16 17  1  0
 17 18  2  0
 18 19  1  0
 19 20  2  0
 20 21  1  0
 21 22  2  0
 15 23  1  0
 23 24  2  0
 23 25  1  0
 25 26  1  0
 26 27  1  0
 27 28  1  0
 28 29  2  0
 29 30  1  0
 30 31  2  0
 31 32  1  0
 32 33  2  0
 26 34  1  0
 34 35  2  0
 34 36  1  0
  2 37  1  0
 37 38  1  0
 38 39  1  0
 39 40  1  0
 40 41  1  0
 41 42  1  0
 41 43  1  0
 43 44  1  0
 44 45  2  0
 44 46  1  0
 46 47  1  0
 47 48  1  0
 48 49  1  0
 49 50  2  0
 50 51  1  0
 51 52  2  0
 52 53  1  0
 53 54  2  0
 47 55  1  0
 55 56  2  0
 55 57  1  0
 11  6  1  0
 22 17  1  0
 33 28  1  0
 42 37  1  0
 54 49  1  0
 43 39  1  0
M  END
>  <Title>  (127) 
idAALKgen6

$$$$

     RDKit          2D

 64 71  0  0  0  0  0  0  0  0999 V2000
    1.4650    3.9205    0.0000 O   0  0  0  0  0  0  0  0  0  0  0  0
    2.0130    2.5242    0.0000 C   0  0  0  0  0  0  0  0  0  0  0  0
    3.4962    2.3006    0.0000 N   0  0  0  0  0  0  0  0  0  0  0  0
    4.4315    3.4734    0.0000 C   0  0  0  0  0  0  0  0  0  0  0  0
    5.9147    3.2498    0.0000 C   0  0  0  0  0  0  0  0  0  0  0  0
    6.8499    4.4226    0.0000 C   0  0  0  0  0  0  0  0  0  0  0  0
    7.3770    5.8269    0.0000 C   0  0  0  0  0  0  0  0  0  0  0  0
    6.2043    6.7622    0.0000 C   0  0  0  0  0  0  0  0  0  0  0  0
    4.9524    5.9358    0.0000 C   0  0  0  0  0  0  0  0  0  0  0  0
    3.8835    4.8697    0.0000 C   0  0  0  0  0  0  0  0  0  0  0  0
    5.3515    4.4899    0.0000 N   0  0  0  0  0  0  0  0  0  0  0  0
    4.4162    3.3171    0.0000 C   0  0  0  0  0  0  0  0  0  0  0  0
    4.9642    1.9208    0.0000 C   0  0  0  0  0  0  0  0  0  0  0  0
    4.0290    0.7481    0.0000 C   0  0  0  0  0  0  0  0  0  0  0  0
    2.5458    0.9716    0.0000 C   0  0  0  0  0  0  0  0  0  0  0  0
    1.6105   -0.2011    0.0000 C   0  0  0  0  0  0  0  0  0  0  0  0
    2.1585   -1.5974    0.0000 C   0  0  0  0  0  0  0  0  0  0  0  0
    3.6418   -1.8210    0.0000 C   0  0  0  0  0  0  0  0  0  0  0  0
    4.5770   -0.6483    0.0000 C   0  0  0  0  0  0  0  0  0  0  0  0
    1.0777    1.3515    0.0000 C   0  0  0  0  0  0  0  0  0  0  0  0
    1.7286    0.0000    0.0000 C   0  0  0  0  0  0  0  0  0  0  0  0
    1.0777   -1.3515    0.0000 O   0  0  0  0  0  0  0  0  0  0  0  0
   -0.3846   -1.6852    0.0000 C   0  0  0  0  0  0  0  0  0  0  0  0
   -0.7184   -3.1476    0.0000 O   0  0  0  0  0  0  0  0  0  0  0  0
   -1.5574   -0.7500    0.0000 C   0  0  0  0  0  0  0  0  0  0  0  0
   -1.5574    0.7500    0.0000 C   0  0  0  0  0  0  0  0  0  0  0  0
   -0.3846    1.6852    0.0000 C   0  0  0  0  0  0  0  0  0  0  0  0
   -0.3846   -0.1852    0.0000 C   0  0  0  0  0  0  0  0  0  0  0  0
    0.9668    0.4656    0.0000 C   0  0  0  0  0  0  0  0  0  0  0  0
    1.4375    1.8898    0.0000 O   0  0  0  0  0  0  0  0  0  0  0  0
    2.2062   -0.3794    0.0000 N   0  0  0  0  0  0  0  0  0  0  0  0
    3.5576    0.2714    0.0000 C   0  0  0  0  0  0  0  0  0  0  0  0
    4.7970   -0.5735    0.0000 C   0  0  0  0  0  0  0  0  0  0  0  0
    6.1484    0.0773    0.0000 C   0  0  0  0  0  0  0  0  0  0  0  0
    7.3878   -0.7677    0.0000 C   0  0  0  0  0  0  0  0  0  0  0  0
    8.7392   -0.1169    0.0000 C   0  0  0  0  0  0  0  0  0  0  0  0
    8.8513    1.3789    0.0000 C   0  0  0  0  0  0  0  0  0  0  0  0
    7.6120    2.2239    0.0000 C   0  0  0  0  0  0  0  0  0  0  0  0
    6.2605    1.5731    0.0000 C   0  0  0  0  0  0  0  0  0  0  0  0
    3.6697    1.7672    0.0000 C   0  0  0  0  0  0  0  0  0  0  0  0
    2.6717    2.8870    0.0000 O   0  0  0  0  0  0  0  0  0  0  0  0
    5.0212    2.4181    0.0000 N   0  0  0  0  0  0  0  0  0  0  0  0
    5.1333    3.9139    0.0000 C   0  0  0  0  0  0  0  0  0  0  0  0
    6.4847    4.5647    0.0000 C   0  0  0  0  0  0  0  0  0  0  0  0
    6.5968    6.0605    0.0000 C   0  0  0  0  0  0  0  0  0  0  0  0
    7.9483    6.7113    0.0000 C   0  0  0  0  0  0  0  0  0  0  0  0
    8.0604    8.2071    0.0000 C   0  0  0  0  0  0  0  0  0  0  0  0
    6.8210    9.0521    0.0000 C   0  0  0  0  0  0  0  0  0  0  0  0
    5.4696    8.4013    0.0000 C   0  0  0  0  0  0  0  0  0  0  0  0
    5.3575    6.9055    0.0000 C   0  0  0  0  0  0  0  0  0  0  0  0
    3.8939    4.7589    0.0000 C   0  0  0  0  0  0  0  0  0  0  0  0
    2.5425    4.1080    0.0000 O   0  0  0  0  0  0  0  0  0  0  0  0
    4.0060    6.2547    0.0000 N   0  0  0  0  0  0  0  0  0  0  0  0
    2.7666    7.0996    0.0000 C   0  0  0  0  0  0  0  0  0  0  0  0
    2.8787    8.5954    0.0000 C   0  0  0  0  0  0  0  0  0  0  0  0
    1.6394    9.4404    0.0000 C   0  0  0  0  0  0  0  0  0  0  0  0
    1.7515   10.9362    0.0000 C   0  0  0  0  0  0  0  0  0  0  0  0
    0.5121   11.7812    0.0000 C   0  0  0  0  0  0  0  0  0  0  0  0
   -0.8393   11.1304    0.0000 C   0  0  0  0  0  0  0  0  0  0  0  0
   -0.9514    9.6346    0.0000 C   0  0  0  0  0  0  0  0  0  0  0  0
    0.2879    8.7896    0.0000 C   0  0  0  0  0  0  0  0  0  0  0  0
    1.4152    6.4488    0.0000 C   0  0  0  0  0  0  0  0  0  0  0  0
    1.3031    4.9530    0.0000 O   0  0  0  0  0  0  0  0  0  0  0  0
    0.1758    7.2938    0.0000 O   0  0  0  0  0  0  0  0  0  0  0  0
  1  2  2  0
  2  3  1  0
  3  4  1  0
  4  5  1  0
  5  6  1  0
  6  7  1  0
  7  8  1  0
  8  9  1  0
  9 10  1  0
  9 11  1  0
 11 12  1  0
 12 13  1  0
 13 14  1  0
 14 15  2  0
 15 16  1  0
 16 17  2  0
 17 18  1  0
 18 19  2  0
  2 20  1  0
 20 21  1  0
 21 22  1  0
 22 23  1  0
 23 24  1  0
 23 25  1  0
 25 26  1  0
 26 27  1  0
 26 28  1  0
 28 29  1  0
 29 30  2  0
 29 31  1  0
 31 32  1  0
 32 33  1  0
 33 34  1  0
 34 35  2  0
 35 36  1  0
 36 37  2  0
 37 38  1  0
 38 39  2  0
 32 40  1  0
 40 41  2  0
 40 42  1  0
 42 43  1  0
 43 44  1  0
 44 45  1  0
 45 46  2  0
 46 47  1  0
 47 48  2  0
 48 49  1  0
 49 50  2  0
 43 51  1  0
 51 52  2  0
 51 53  1  0
 53 54  1  0
 54 55  1  0
 55 56  1  0
 56 57  2  0
 57 58  1  0
 58 59  2  0
 59 60  1  0
 60 61  2  0
 54 62  1  0
 62 63  2  0
 62 64  1  0
 10  4  1  0
 19 14  1  0
 27 20  1  0
 39 34  1  0
 50 45  1  0
 61 56  1  0
 11  6  1  0
 28 23  1  0
M  END
>  <Title>  (128) 
idAALLgen6

$$$$

     RDKit          2D

 63 70  0  0  0  0  0  0  0  0999 V2000
    5.0229   -1.1785    0.0000 C   0  0  0  0  0  0  0  0  0  0  0  0
    3.5517   -1.4712    0.0000 C   0  0  0  0  0  0  0  0  0  0  0  0
    4.3851   -2.7184    0.0000 C   0  0  0  0  0  0  0  0  0  0  0  0
    5.8819   -2.6203    0.0000 C   0  0  0  0  0  0  0  0  0  0  0  0
    6.7152   -3.8675    0.0000 C   0  0  0  0  0  0  0  0  0  0  0  0
    8.2120   -3.7694    0.0000 C   0  0  0  0  0  0  0  0  0  0  0  0
    8.8755   -2.4241    0.0000 O   0  0  0  0  0  0  0  0  0  0  0  0
    9.0454   -5.0166    0.0000 C   0  0  0  0  0  0  0  0  0  0  0  0
    7.7179   -5.7150    0.0000 O   0  0  0  0  0  0  0  0  0  0  0  0
    9.6012   -6.4098    0.0000 C   0  0  0  0  0  0  0  0  0  0  0  0
   11.0980   -6.3117    0.0000 C   0  0  0  0  0  0  0  0  0  0  0  0
   11.4672   -4.8578    0.0000 C   0  0  0  0  0  0  0  0  0  0  0  0
   10.1986   -4.0574    0.0000 C   0  0  0  0  0  0  0  0  0  0  0  0
    6.5453   -1.2750    0.0000 C   0  0  0  0  0  0  0  0  0  0  0  0
    5.7120   -0.0278    0.0000 O   0  0  0  0  0  0  0  0  0  0  0  0
    8.0421   -1.1769    0.0000 C   0  0  0  0  0  0  0  0  0  0  0  0
    8.7055    0.1684    0.0000 O   0  0  0  0  0  0  0  0  0  0  0  0
    3.8444    0.0000    0.0000 C   0  0  0  0  0  0  0  0  0  0  0  0
    3.5517    1.4712    0.0000 C   0  0  0  0  0  0  0  0  0  0  0  0
    2.7184    2.7184    0.0000 C   0  0  0  0  0  0  0  0  0  0  0  0
    1.4712    3.5517    0.0000 C   0  0  0  0  0  0  0  0  0  0  0  0
    0.0000    3.8444    0.0000 C   0  0  0  0  0  0  0  0  0  0  0  0
   -1.4712    3.5517    0.0000 C   0  0  0  0  0  0  0  0  0  0  0  0
   -2.7184    2.7184    0.0000 C   0  0  0  0  0  0  0  0  0  0  0  0
   -3.5517    1.4712    0.0000 C   0  0  0  0  0  0  0  0  0  0  0  0
   -3.8444    0.0000    0.0000 C   0  0  0  0  0  0  0  0  0  0  0  0
   -3.5517   -1.4712    0.0000 C   0  0  0  0  0  0  0  0  0  0  0  0
   -2.7184   -2.7184    0.0000 C   0  0  0  0  0  0  0  0  0  0  0  0
   -1.4712   -3.5517    0.0000 C   0  0  0  0  0  0  0  0  0  0  0  0
   -0.0000   -3.8444    0.0000 C   0  0  0  0  0  0  0  0  0  0  0  0
    1.4712   -3.5517    0.0000 C   0  0  0  0  0  0  0  0  0  0  0  0
    2.7184   -2.7184    0.0000 C   0  0  0  0  0  0  0  0  0  0  0  0
    3.7790   -3.7790    0.0000 C   0  0  0  0  0  0  0  0  0  0  0  0
    3.3908   -5.2279    0.0000 C   0  0  0  0  0  0  0  0  0  0  0  0
    4.4515   -6.2886    0.0000 C   0  0  0  0  0  0  0  0  0  0  0  0
    4.0632   -7.7375    0.0000 C   0  0  0  0  0  0  0  0  0  0  0  0
    2.6144   -8.1257    0.0000 C   0  0  0  0  0  0  0  0  0  0  0  0
    1.5537   -7.0650    0.0000 C   0  0  0  0  0  0  0  0  0  0  0  0
    0.1048   -7.4533    0.0000 C   0  0  0  0  0  0  0  0  0  0  0  0
    1.9419   -5.6162    0.0000 C   0  0  0  0  0  0  0  0  0  0  0  0
    0.8813   -4.5555    0.0000 C   0  0  0  0  0  0  0  0  0  0  0  0
   -0.5676   -4.9437    0.0000 C   0  0  0  0  0  0  0  0  0  0  0  0
   -0.9559   -6.3926    0.0000 C   0  0  0  0  0  0  0  0  0  0  0  0
   -2.4047   -6.7808    0.0000 C   0  0  0  0  0  0  0  0  0  0  0  0
   -3.5705   -5.8369    0.0000 C   0  0  0  0  0  0  0  0  0  0  0  0
   -4.8285   -6.6538    0.0000 C   0  0  0  0  0  0  0  0  0  0  0  0
   -4.4402   -8.1027    0.0000 C   0  0  0  0  0  0  0  0  0  0  0  0
   -2.9423   -8.1812    0.0000 C   0  0  0  0  0  0  0  0  0  0  0  0
    3.0537   -7.0650    0.0000 C   0  0  0  0  0  0  0  0  0  0  0  0
    4.1144   -8.1257    0.0000 C   0  0  0  0  0  0  0  0  0  0  0  0
    3.7261   -9.5746    0.0000 C   0  0  0  0  0  0  0  0  0  0  0  0
    2.2772   -9.9628    0.0000 O   0  0  0  0  0  0  0  0  0  0  0  0
    4.7868  -10.6353    0.0000 C   0  0  0  0  0  0  0  0  0  0  0  0
    4.3986  -12.0841    0.0000 C   0  0  0  0  0  0  0  0  0  0  0  0
    5.4592  -13.1448    0.0000 C   0  0  0  0  0  0  0  0  0  0  0  0
    5.0710  -14.5937    0.0000 C   0  0  0  0  0  0  0  0  0  0  0  0
    3.6221  -14.9819    0.0000 C   0  0  0  0  0  0  0  0  0  0  0  0
    2.5614  -13.9213    0.0000 C   0  0  0  0  0  0  0  0  0  0  0  0
    5.4592  -12.3683    0.0000 C   0  0  0  0  0  0  0  0  0  0  0  0
    6.9081  -12.7566    0.0000 C   0  0  0  0  0  0  0  0  0  0  0  0
    6.5199  -14.2055    0.0000 C   0  0  0  0  0  0  0  0  0  0  0  0
    5.8474  -11.6959    0.0000 C   0  0  0  0  0  0  0  0  0  0  0  0
    2.9497  -12.4724    0.0000 C   0  0  0  0  0  0  0  0  0  0  0  0
  1  2  1  0
  2  3  1  0
  3  4  1  0
  4  5  1  0
  5  6  1  0
  6  7  1  0
  6  8  1  0
  8  9  1  0
  8 10  1  0
 10 11  1  0
 11 12  1  0
 12 13  1  0
  4 14  1  0
 14 15  1  0
 14 16  1  0
 16 17  1  0
  2 18  1  0
 18 19  1  0
 19 20  1  0
 20 21  1  0
 21 22  1  0
 22 23  1  0
 23 24  1  0
 24 25  1  0
 25 26  1  0
 26 27  1  0
 27 28  1  0
 28 29  1  0
 29 30  1  0
 30 31  1  0
 31 32  1  0
 32 33  1  0
 33 34  1  0
 34 35  1  0
 35 36  1  0
 36 37  1  0
 37 38  1  0
 38 39  1  0
 38 40  1  0
 40 41  1  0
 41 42  1  0
 42 43  1  0
 43 44  1  0
 44 45  1  0
 45 46  1  0
 46 47  1  0
 47 48  1  0
 38 49  1  0
 49 50  1  0
 50 51  1  0
 51 52  1  0
 51 53  1  0
 53 54  1  0
 54 55  1  0
 55 56  1  0
 56 57  1  0
 57 58  1  0
 58 59  1  0
 59 60  1  0
 60 61  1  0
 60 62  1  0
 58 63  1  0
 32  2  1  0
 40 34  1  0
 48 44  1  0
 62 54  1  0
 13  8  1  0
 49 34  1  0
 63 54  1  0
 61 56  1  0
M  END
>  <Title>  (129) 
idAALMgen6

$$$$

     RDKit          2D

 63 70  0  0  0  0  0  0  0  0999 V2000
   -4.2972    4.3813    0.0000 O   0  0  0  0  0  0  0  0  0  0  0  0
   -4.7925    2.9654    0.0000 C   0  0  0  0  0  0  0  0  0  0  0  0
   -4.2865    1.5533    0.0000 N   0  0  0  0  0  0  0  0  0  0  0  0
   -2.8106    1.2855    0.0000 C   0  0  0  0  0  0  0  0  0  0  0  0
   -1.9290    2.4990    0.0000 C   0  0  0  0  0  0  0  0  0  0  0  0
   -0.4305    2.5663    0.0000 C   0  0  0  0  0  0  0  0  0  0  0  0
    0.3943    1.2135    0.0000 C   0  0  0  0  0  0  0  0  0  0  0  0
    1.2760    0.0000    0.0000 C   0  0  0  0  0  0  0  0  0  0  0  0
    0.3943   -1.2135    0.0000 C   0  0  0  0  0  0  0  0  0  0  0  0
   -1.0323   -0.7500    0.0000 C   0  0  0  0  0  0  0  0  0  0  0  0
   -2.4116   -0.1605    0.0000 C   0  0  0  0  0  0  0  0  0  0  0  0
   -1.0323    0.7500    0.0000 N   0  0  0  0  0  0  0  0  0  0  0  0
   -2.2458    1.6317    0.0000 C   0  0  0  0  0  0  0  0  0  0  0  0
   -2.0890    3.1235    0.0000 C   0  0  0  0  0  0  0  0  0  0  0  0
   -3.3025    4.0051    0.0000 C   0  0  0  0  0  0  0  0  0  0  0  0
   -3.1458    5.4969    0.0000 C   0  0  0  0  0  0  0  0  0  0  0  0
   -4.3593    6.3786    0.0000 C   0  0  0  0  0  0  0  0  0  0  0  0
   -5.7296    5.7685    0.0000 C   0  0  0  0  0  0  0  0  0  0  0  0
   -5.8864    4.2767    0.0000 C   0  0  0  0  0  0  0  0  0  0  0  0
   -4.6729    3.3950    0.0000 C   0  0  0  0  0  0  0  0  0  0  0  0
   -6.2684    3.2332    0.0000 C   0  0  0  0  0  0  0  0  0  0  0  0
   -6.7744    4.6453    0.0000 C   0  0  0  0  0  0  0  0  0  0  0  0
   -8.2503    4.9131    0.0000 C   0  0  0  0  0  0  0  0  0  0  0  0
   -9.2202    3.7689    0.0000 C   0  0  0  0  0  0  0  0  0  0  0  0
   -8.7142    2.3568    0.0000 C   0  0  0  0  0  0  0  0  0  0  0  0
   -7.2383    2.0890    0.0000 C   0  0  0  0  0  0  0  0  0  0  0  0
   -7.7443    3.5011    0.0000 C   0  0  0  0  0  0  0  0  0  0  0  0
   -6.2684    3.2332    0.0000 C   0  0  0  0  0  0  0  0  0  0  0  0
   -5.6042    4.5782    0.0000 O   0  0  0  0  0  0  0  0  0  0  0  0
   -5.7624    1.8212    0.0000 N   0  0  0  0  0  0  0  0  0  0  0  0
   -4.2865    1.5533    0.0000 C   0  0  0  0  0  0  0  0  0  0  0  0
   -3.7805    0.1412    0.0000 C   0  0  0  0  0  0  0  0  0  0  0  0
   -2.3046   -0.1266    0.0000 C   0  0  0  0  0  0  0  0  0  0  0  0
   -1.7986   -1.5387    0.0000 C   0  0  0  0  0  0  0  0  0  0  0  0
   -0.3227   -1.8065    0.0000 C   0  0  0  0  0  0  0  0  0  0  0  0
    0.6472   -0.6623    0.0000 C   0  0  0  0  0  0  0  0  0  0  0  0
    0.1412    0.7498    0.0000 C   0  0  0  0  0  0  0  0  0  0  0  0
   -1.3347    1.0176    0.0000 C   0  0  0  0  0  0  0  0  0  0  0  0
   -3.3166    2.6976    0.0000 C   0  0  0  0  0  0  0  0  0  0  0  0
   -3.9910    4.0374    0.0000 O   0  0  0  0  0  0  0  0  0  0  0  0
   -1.8407    2.4297    0.0000 N   0  0  0  0  0  0  0  0  0  0  0  0
   -0.8708    3.5740    0.0000 C   0  0  0  0  0  0  0  0  0  0  0  0
    0.6051    3.3061    0.0000 C   0  0  0  0  0  0  0  0  0  0  0  0
    1.5750    4.4504    0.0000 C   0  0  0  0  0  0  0  0  0  0  0  0
    3.0509    4.1825    0.0000 C   0  0  0  0  0  0  0  0  0  0  0  0
    4.0208    5.3268    0.0000 C   0  0  0  0  0  0  0  0  0  0  0  0
    3.5148    6.7389    0.0000 C   0  0  0  0  0  0  0  0  0  0  0  0
    2.0389    7.0067    0.0000 C   0  0  0  0  0  0  0  0  0  0  0  0
    1.0690    5.8625    0.0000 C   0  0  0  0  0  0  0  0  0  0  0  0
   -1.3768    4.9861    0.0000 C   0  0  0  0  0  0  0  0  0  0  0  0
   -2.7441    5.6031    0.0000 O   0  0  0  0  0  0  0  0  0  0  0  0
   -0.4069    6.1303    0.0000 N   0  0  0  0  0  0  0  0  0  0  0  0
   -0.9129    7.5424    0.0000 C   0  0  0  0  0  0  0  0  0  0  0  0
    0.0570    8.6866    0.0000 C   0  0  0  0  0  0  0  0  0  0  0  0
   -0.4490   10.0987    0.0000 C   0  0  0  0  0  0  0  0  0  0  0  0
    0.5209   11.2429    0.0000 C   0  0  0  0  0  0  0  0  0  0  0  0
    0.0149   12.6550    0.0000 C   0  0  0  0  0  0  0  0  0  0  0  0
   -1.4610   12.9229    0.0000 C   0  0  0  0  0  0  0  0  0  0  0  0
   -2.4309   11.7786    0.0000 C   0  0  0  0  0  0  0  0  0  0  0  0
   -1.9249   10.3665    0.0000 C   0  0  0  0  0  0  0  0  0  0  0  0
   -2.3888    7.8102    0.0000 C   0  0  0  0  0  0  0  0  0  0  0  0
   -3.3587    6.6660    0.0000 O   0  0  0  0  0  0  0  0  0  0  0  0
   -2.8948    9.2223    0.0000 O   0  0  0  0  0  0  0  0  0  0  0  0
  1  2  2  0
  2  3  1  0
  3  4  1  0
  4  5  1  0
  5  6  1  0
  6  7  1  0
  7  8  1  0
  8  9  1  0
  9 10  1  0
 10 11  1  0
 10 12  1  0
 12 13  1  0
 13 14  1  0
 14 15  1  0
 15 16  2  0
 16 17  1  0
 17 18  2  0
 18 19  1  0
 19 20  2  0
  2 21  1  0
 21 22  1  0
 22 23  1  0
 23 24  1  0
 24 25  1  0
 25 26  1  0
 25 27  1  0
 27 28  1  0
 28 29  2  0
 28 30  1  0
 30 31  1  0
 31 32  1  0
 32 33  1  0
 33 34  2  0
 34 35  1  0
 35 36  2  0
 36 37  1  0
 37 38  2  0
 31 39  1  0
 39 40  2  0
 39 41  1  0
 41 42  1  0
 42 43  1  0
 43 44  1  0
 44 45  2  0
 45 46  1  0
 46 47  2  0
 47 48  1  0
 48 49  2  0
 42 50  1  0
 50 51  2  0
 50 52  1  0
 52 53  1  0
 53 54  1  0
 54 55  1  0
 55 56  2  0
 56 57  1  0
 57 58  2  0
 58 59  1  0
 59 60  2  0
 53 61  1  0
 61 62  2  0
 61 63  1  0
 11  4  1  0
 20 15  1  0
 26 21  1  0
 38 33  1  0
 49 44  1  0
 60 55  1  0
 12  7  1  0
 27 23  1  0
M  END
>  <Title>  (130) 
idAALNgen6

$$$$

     RDKit          2D

 36 41  0  0  0  0  0  0  0  0999 V2000
   -1.8760    4.4687    0.0000 O   0  0  0  0  0  0  0  0  0  0  0  0
   -3.2463    3.8586    0.0000 C   0  0  0  0  0  0  0  0  0  0  0  0
   -4.4598    4.7402    0.0000 N   0  0  0  0  0  0  0  0  0  0  0  0
   -4.3030    6.2320    0.0000 C   0  0  0  0  0  0  0  0  0  0  0  0
   -5.5165    7.1137    0.0000 C   0  0  0  0  0  0  0  0  0  0  0  0
   -6.5955    6.0717    0.0000 C   0  0  0  0  0  0  0  0  0  0  0  0
   -8.0374    6.4852    0.0000 C   0  0  0  0  0  0  0  0  0  0  0  0
   -9.1164    5.4432    0.0000 C   0  0  0  0  0  0  0  0  0  0  0  0
   -8.7536    3.9877    0.0000 C   0  0  0  0  0  0  0  0  0  0  0  0
   -7.3117    3.5743    0.0000 C   0  0  0  0  0  0  0  0  0  0  0  0
   -6.2327    4.6163    0.0000 C   0  0  0  0  0  0  0  0  0  0  0  0
   -6.3553    8.3573    0.0000 C   0  0  0  0  0  0  0  0  0  0  0  0
   -4.8590    8.4619    0.0000 C   0  0  0  0  0  0  0  0  0  0  0  0
   -3.4031    2.3668    0.0000 N   0  0  0  0  0  0  0  0  0  0  0  0
   -2.1895    1.4851    0.0000 C   0  0  0  0  0  0  0  0  0  0  0  0
   -0.8192    2.0952    0.0000 C   0  0  0  0  0  0  0  0  0  0  0  0
    0.3943    1.2135    0.0000 C   0  0  0  0  0  0  0  0  0  0  0  0
    1.2760    0.0000    0.0000 C   0  0  0  0  0  0  0  0  0  0  0  0
    0.3943   -1.2135    0.0000 C   0  0  0  0  0  0  0  0  0  0  0  0
   -1.0323   -0.7500    0.0000 C   0  0  0  0  0  0  0  0  0  0  0  0
   -2.3463   -0.0067    0.0000 C   0  0  0  0  0  0  0  0  0  0  0  0
   -1.0323    0.7500    0.0000 N   0  0  0  0  0  0  0  0  0  0  0  0
   -2.2458    1.6317    0.0000 C   0  0  0  0  0  0  0  0  0  0  0  0
   -2.0890    3.1235    0.0000 C   0  0  0  0  0  0  0  0  0  0  0  0
   -3.3025    4.0051    0.0000 C   0  0  0  0  0  0  0  0  0  0  0  0
   -3.1458    5.4969    0.0000 C   0  0  0  0  0  0  0  0  0  0  0  0
   -4.3593    6.3786    0.0000 C   0  0  0  0  0  0  0  0  0  0  0  0
   -5.7296    5.7685    0.0000 C   0  0  0  0  0  0  0  0  0  0  0  0
   -6.9431    6.6502    0.0000 C   0  0  0  0  0  0  0  0  0  0  0  0
   -6.7863    8.1420    0.0000 C   0  0  0  0  0  0  0  0  0  0  0  0
   -7.9999    9.0236    0.0000 C   0  0  0  0  0  0  0  0  0  0  0  0
   -9.3702    8.4135    0.0000 C   0  0  0  0  0  0  0  0  0  0  0  0
   -9.5270    6.9217    0.0000 C   0  0  0  0  0  0  0  0  0  0  0  0
   -8.3134    6.0401    0.0000 N   0  0  0  0  0  0  0  0  0  0  0  0
   -5.8864    4.2767    0.0000 C   0  0  0  0  0  0  0  0  0  0  0  0
   -4.6729    3.3950    0.0000 C   0  0  0  0  0  0  0  0  0  0  0  0
  1  2  2  0
  2  3  1  0
  3  4  1  0
  4  5  1  0
  5  6  1  0
  6  7  2  0
  7  8  1  0
  8  9  2  0
  9 10  1  0
 10 11  2  0
  5 12  1  0
 12 13  1  0
  2 14  1  0
 14 15  1  0
 15 16  1  0
 16 17  1  0
 17 18  1  0
 18 19  1  0
 19 20  1  0
 20 21  1  0
 20 22  1  0
 22 23  1  0
 23 24  1  0
 24 25  1  0
 25 26  2  0
 26 27  1  0
 27 28  2  0
 28 29  1  0
 29 30  2  0
 30 31  1  0
 31 32  2  0
 32 33  1  0
 33 34  2  0
 28 35  1  0
 35 36  2  0
 13  5  1  0
 21 15  1  0
 36 25  1  0
 11  6  1  0
 22 17  1  0
 34 29  1  0
M  END
>  <Title>  (131) 
idAALOgen6

$$$$

     RDKit          2D

 42 45  0  0  0  0  0  0  0  0999 V2000
    5.0229   -1.1785    0.0000 C   0  0  0  0  0  0  0  0  0  0  0  0
    3.5517   -1.4712    0.0000 C   0  0  0  0  0  0  0  0  0  0  0  0
    4.3851   -2.7184    0.0000 C   0  0  0  0  0  0  0  0  0  0  0  0
    5.8819   -2.6203    0.0000 C   0  0  0  0  0  0  0  0  0  0  0  0
    6.7152   -3.8675    0.0000 C   0  0  0  0  0  0  0  0  0  0  0  0
    8.2120   -3.7694    0.0000 C   0  0  0  0  0  0  0  0  0  0  0  0
    9.0454   -5.0166    0.0000 O   0  0  0  0  0  0  0  0  0  0  0  0
    8.8755   -2.4241    0.0000 C   0  0  0  0  0  0  0  0  0  0  0  0
    7.4682   -1.9049    0.0000 O   0  0  0  0  0  0  0  0  0  0  0  0
    9.2447   -0.9702    0.0000 C   0  0  0  0  0  0  0  0  0  0  0  0
   10.7415   -0.8721    0.0000 C   0  0  0  0  0  0  0  0  0  0  0  0
   11.2973   -2.2653    0.0000 C   0  0  0  0  0  0  0  0  0  0  0  0
   10.1440   -3.2245    0.0000 C   0  0  0  0  0  0  0  0  0  0  0  0
    6.5453   -1.2750    0.0000 C   0  0  0  0  0  0  0  0  0  0  0  0
    5.7120   -0.0278    0.0000 O   0  0  0  0  0  0  0  0  0  0  0  0
    8.0421   -1.1769    0.0000 C   0  0  0  0  0  0  0  0  0  0  0  0
    8.7055    0.1684    0.0000 O   0  0  0  0  0  0  0  0  0  0  0  0
    3.8444    0.0000    0.0000 C   0  0  0  0  0  0  0  0  0  0  0  0
    3.5517    1.4712    0.0000 C   0  0  0  0  0  0  0  0  0  0  0  0
    2.7184    2.7184    0.0000 C   0  0  0  0  0  0  0  0  0  0  0  0
    1.4712    3.5517    0.0000 C   0  0  0  0  0  0  0  0  0  0  0  0
    0.0000    3.8444    0.0000 C   0  0  0  0  0  0  0  0  0  0  0  0
   -1.4712    3.5517    0.0000 C   0  0  0  0  0  0  0  0  0  0  0  0
   -2.7184    2.7184    0.0000 C   0  0  0  0  0  0  0  0  0  0  0  0
   -3.5517    1.4712    0.0000 C   0  0  0  0  0  0  0  0  0  0  0  0
   -3.8444    0.0000    0.0000 C   0  0  0  0  0  0  0  0  0  0  0  0
   -3.5517   -1.4712    0.0000 C   0  0  0  0  0  0  0  0  0  0  0  0
   -2.7184   -2.7184    0.0000 C   0  0  0  0  0  0  0  0  0  0  0  0
   -1.4712   -3.5517    0.0000 C   0  0  0  0  0  0  0  0  0  0  0  0
   -0.0000   -3.8444    0.0000 C   0  0  0  0  0  0  0  0  0  0  0  0
    1.4712   -3.5517    0.0000 C   0  0  0  0  0  0  0  0  0  0  0  0
    2.7184   -2.7184    0.0000 C   0  0  0  0  0  0  0  0  0  0  0  0
    3.7790   -3.7790    0.0000 C   0  0  0  0  0  0  0  0  0  0  0  0
    3.3908   -5.2279    0.0000 C   0  0  0  0  0  0  0  0  0  0  0  0
    4.7503   -5.8619    0.0000 C   0  0  0  0  0  0  0  0  0  0  0  0
    5.9790   -5.0015    0.0000 C   0  0  0  0  0  0  0  0  0  0  0  0
    7.3385   -5.6354    0.0000 C   0  0  0  0  0  0  0  0  0  0  0  0
    7.4692   -7.1297    0.0000 C   0  0  0  0  0  0  0  0  0  0  0  0
    6.2405   -7.9901    0.0000 C   0  0  0  0  0  0  0  0  0  0  0  0
    4.8810   -7.3562    0.0000 C   0  0  0  0  0  0  0  0  0  0  0  0
    2.5304   -6.4567    0.0000 C   0  0  0  0  0  0  0  0  0  0  0  0
    1.8965   -5.0972    0.0000 C   0  0  0  0  0  0  0  0  0  0  0  0
  1  2  1  0
  2  3  1  0
  3  4  1  0
  4  5  1  0
  5  6  1  0
  6  7  1  0
  6  8  1  0
  8  9  1  0
  8 10  1  0
 10 11  1  0
 11 12  1  0
 12 13  1  0
  4 14  1  0
 14 15  1  0
 14 16  1  0
 16 17  1  0
  2 18  1  0
 18 19  1  0
 19 20  1  0
 20 21  1  0
 21 22  1  0
 22 23  1  0
 23 24  1  0
 24 25  1  0
 25 26  1  0
 26 27  1  0
 27 28  1  0
 28 29  1  0
 29 30  1  0
 30 31  1  0
 31 32  1  0
 32 33  1  0
 33 34  1  0
 34 35  1  0
 35 36  2  0
 36 37  1  0
 37 38  2  0
 38 39  1  0
 39 40  2  0
 34 41  1  0
 41 42  1  0
 32  2  1  0
 42 34  1  0
 13  8  1  0
 40 35  1  0
M  END
>  <Title>  (132) 
idAALPgen6

$$$$

     RDKit          2D

 55 63  0  0  0  0  0  0  0  0999 V2000
   -1.9605    4.6312    0.0000 O   0  0  0  0  0  0  0  0  0  0  0  0
   -3.2463    3.8586    0.0000 C   0  0  0  0  0  0  0  0  0  0  0  0
   -3.4031    2.3668    0.0000 N   0  0  0  0  0  0  0  0  0  0  0  0
   -2.1895    1.4851    0.0000 C   0  0  0  0  0  0  0  0  0  0  0  0
   -0.8192    2.0952    0.0000 C   0  0  0  0  0  0  0  0  0  0  0  0
    0.3943    1.2135    0.0000 C   0  0  0  0  0  0  0  0  0  0  0  0
    1.2760    0.0000    0.0000 C   0  0  0  0  0  0  0  0  0  0  0  0
    0.3943   -1.2135    0.0000 C   0  0  0  0  0  0  0  0  0  0  0  0
   -1.0323   -0.7500    0.0000 C   0  0  0  0  0  0  0  0  0  0  0  0
   -2.3463   -0.0067    0.0000 C   0  0  0  0  0  0  0  0  0  0  0  0
   -1.0323    0.7500    0.0000 N   0  0  0  0  0  0  0  0  0  0  0  0
   -2.2458    1.6317    0.0000 C   0  0  0  0  0  0  0  0  0  0  0  0
   -2.0890    3.1235    0.0000 C   0  0  0  0  0  0  0  0  0  0  0  0
   -3.3025    4.0051    0.0000 C   0  0  0  0  0  0  0  0  0  0  0  0
   -3.1458    5.4969    0.0000 C   0  0  0  0  0  0  0  0  0  0  0  0
   -4.3593    6.3786    0.0000 C   0  0  0  0  0  0  0  0  0  0  0  0
   -5.7296    5.7685    0.0000 C   0  0  0  0  0  0  0  0  0  0  0  0
   -5.8864    4.2767    0.0000 C   0  0  0  0  0  0  0  0  0  0  0  0
   -4.6729    3.3950    0.0000 C   0  0  0  0  0  0  0  0  0  0  0  0
   -4.4598    4.7402    0.0000 C   0  0  0  0  0  0  0  0  0  0  0  0
   -4.3030    6.2320    0.0000 C   0  0  0  0  0  0  0  0  0  0  0  0
   -5.5165    7.1137    0.0000 C   0  0  0  0  0  0  0  0  0  0  0  0
   -6.8869    6.5036    0.0000 C   0  0  0  0  0  0  0  0  0  0  0  0
   -7.0436    5.0118    0.0000 C   0  0  0  0  0  0  0  0  0  0  0  0
   -5.8301    4.1301    0.0000 C   0  0  0  0  0  0  0  0  0  0  0  0
   -5.6733    5.6219    0.0000 C   0  0  0  0  0  0  0  0  0  0  0  0
   -4.4598    4.7402    0.0000 C   0  0  0  0  0  0  0  0  0  0  0  0
   -3.2778    5.6638    0.0000 O   0  0  0  0  0  0  0  0  0  0  0  0
   -4.6166    3.2485    0.0000 N   0  0  0  0  0  0  0  0  0  0  0  0
   -3.4031    2.3668    0.0000 C   0  0  0  0  0  0  0  0  0  0  0  0
   -3.5599    0.8750    0.0000 C   0  0  0  0  0  0  0  0  0  0  0  0
   -2.3463   -0.0067    0.0000 C   0  0  0  0  0  0  0  0  0  0  0  0
   -2.5031   -1.4985    0.0000 C   0  0  0  0  0  0  0  0  0  0  0  0
   -1.2896   -2.3801    0.0000 C   0  0  0  0  0  0  0  0  0  0  0  0
    0.0807   -1.7700    0.0000 C   0  0  0  0  0  0  0  0  0  0  0  0
    0.2375   -0.2783    0.0000 C   0  0  0  0  0  0  0  0  0  0  0  0
   -0.9760    0.6034    0.0000 C   0  0  0  0  0  0  0  0  0  0  0  0
   -2.0328    2.9769    0.0000 C   0  0  0  0  0  0  0  0  0  0  0  0
   -1.6953    4.4384    0.0000 O   0  0  0  0  0  0  0  0  0  0  0  0
   -0.8192    2.0952    0.0000 N   0  0  0  0  0  0  0  0  0  0  0  0
    0.5511    2.7053    0.0000 C   0  0  0  0  0  0  0  0  0  0  0  0
    1.7646    1.8236    0.0000 C   0  0  0  0  0  0  0  0  0  0  0  0
    3.1349    2.4337    0.0000 C   0  0  0  0  0  0  0  0  0  0  0  0
    3.2917    3.9255    0.0000 C   0  0  0  0  0  0  0  0  0  0  0  0
    2.0782    4.8072    0.0000 C   0  0  0  0  0  0  0  0  0  0  0  0
    0.7079    4.1971    0.0000 C   0  0  0  0  0  0  0  0  0  0  0  0
    1.9214    3.3154    0.0000 N   0  0  0  0  0  0  0  0  0  0  0  0
    0.5511    2.7053    0.0000 C   0  0  0  0  0  0  0  0  0  0  0  0
   -0.6624    3.5870    0.0000 C   0  0  0  0  0  0  0  0  0  0  0  0
   -2.0328    2.9769    0.0000 C   0  0  0  0  0  0  0  0  0  0  0  0
   -3.2463    3.8586    0.0000 C   0  0  0  0  0  0  0  0  0  0  0  0
   -4.6166    3.2485    0.0000 C   0  0  0  0  0  0  0  0  0  0  0  0
   -4.7734    1.7567    0.0000 C   0  0  0  0  0  0  0  0  0  0  0  0
   -3.5599    0.8750    0.0000 C   0  0  0  0  0  0  0  0  0  0  0  0
   -2.1895    1.4851    0.0000 C   0  0  0  0  0  0  0  0  0  0  0  0
  1  2  2  0
  2  3  1  0
  3  4  1  0
  4  5  1  0
  5  6  1  0
  6  7  1  0
  7  8  1  0
  8  9  1  0
  9 10  1  0
  9 11  1  0
 11 12  1  0
 12 13  1  0
 13 14  1  0
 14 15  2  0
 15 16  1  0
 16 17  2  0
 17 18  1  0
 18 19  2  0
  2 20  1  0
 20 21  1  0
 21 22  1  0
 22 23  1  0
 23 24  1  0
 24 25  1  0
 24 26  1  0
 26 27  1  0
 27 28  2  0
 27 29  1  0
 29 30  1  0
 30 31  1  0
 31 32  1  0
 32 33  2  0
 33 34  1  0
 34 35  2  0
 35 36  1  0
 36 37  2  0
 30 38  1  0
 38 39  2  0
 38 40  1  0
 40 41  1  0
 41 42  1  0
 42 43  1  0
 43 44  1  0
 44 45  1  0
 45 46  1  0
 45 47  1  0
 47 48  1  0
 48 49  1  0
 49 50  1  0
 50 51  2  0
 51 52  1  0
 52 53  2  0
 53 54  1  0
 54 55  2  0
 10  4  1  0
 19 14  1  0
 25 20  1  0
 37 32  1  0
 46 41  1  0
 55 50  1  0
 11  6  1  0
 26 22  1  0
 47 43  1  0
M  END
>  <Title>  (133) 
idAALQgen6

$$$$

     RDKit          2D

 17 18  0  0  0  0  0  0  0  0999 V2000
    3.6929   -1.5000    0.0000 C   0  0  0  0  0  0  0  0  0  0  0  0
    3.6929    0.0000    0.0000 C   0  0  0  0  0  0  0  0  0  0  0  0
    3.6929    1.5000    0.0000 C   0  0  0  0  0  0  0  0  0  0  0  0
    5.1929    0.0000    0.0000 C   0  0  0  0  0  0  0  0  0  0  0  0
    2.1929    0.0000    0.0000 C   0  0  0  0  0  0  0  0  0  0  0  0
    1.6798    1.4095    0.0000 C   0  0  0  0  0  0  0  0  0  0  0  0
    0.3808    2.1595    0.0000 C   0  0  0  0  0  0  0  0  0  0  0  0
   -1.0964    1.8991    0.0000 C   0  0  0  0  0  0  0  0  0  0  0  0
   -2.0606    0.7500    0.0000 C   0  0  0  0  0  0  0  0  0  0  0  0
   -2.0606   -0.7500    0.0000 C   0  0  0  0  0  0  0  0  0  0  0  0
   -3.4701   -1.2630    0.0000 O   0  0  0  0  0  0  0  0  0  0  0  0
   -1.0964   -1.8991    0.0000 C   0  0  0  0  0  0  0  0  0  0  0  0
    0.3808   -2.1595    0.0000 C   0  0  0  0  0  0  0  0  0  0  0  0
    1.6798   -1.4095    0.0000 C   0  0  0  0  0  0  0  0  0  0  0  0
   -0.7339   -3.1632    0.0000 C   0  0  0  0  0  0  0  0  0  0  0  0
   -2.0330   -2.4132    0.0000 C   0  0  0  0  0  0  0  0  0  0  0  0
   -3.4033   -3.0233    0.0000 O   0  0  0  0  0  0  0  0  0  0  0  0
  1  2  1  0
  2  3  1  0
  2  4  1  0
  2  5  1  0
  5  6  1  0
  6  7  1  0
  7  8  1  0
  8  9  1  0
  9 10  1  0
 10 11  1  0
 10 12  1  0
 12 13  1  0
 13 14  1  0
 13 15  1  0
 15 16  1  0
 16 17  1  0
 14  5  1  0
 16 10  1  0
M  END
>  <Title>  (134) 
idAALRgen6

$$$$

     RDKit          2D

 68 75  0  0  0  0  0  0  0  0999 V2000
    2.8546   -6.0920    0.0000 C   0  0  0  0  0  0  0  0  0  0  0  0
    3.5587   -4.7675    0.0000 C   0  0  0  0  0  0  0  0  0  0  0  0
    4.5624   -3.6528    0.0000 C   0  0  0  0  0  0  0  0  0  0  0  0
    4.8832   -5.4716    0.0000 C   0  0  0  0  0  0  0  0  0  0  0  0
    2.4440   -3.7638    0.0000 C   0  0  0  0  0  0  0  0  0  0  0  0
    1.6270   -5.0218    0.0000 C   0  0  0  0  0  0  0  0  0  0  0  0
    0.1781   -4.6336    0.0000 C   0  0  0  0  0  0  0  0  0  0  0  0
    0.0996   -3.1356    0.0000 C   0  0  0  0  0  0  0  0  0  0  0  0
    1.5000   -2.5981    0.0000 C   0  0  0  0  0  0  0  0  0  0  0  0
    0.7500   -1.2990    0.0000 C   0  0  0  0  0  0  0  0  0  0  0  0
    1.5000    0.0000    0.0000 C   0  0  0  0  0  0  0  0  0  0  0  0
    0.7500    1.2990    0.0000 C   0  0  0  0  0  0  0  0  0  0  0  0
   -0.7500    1.2990    0.0000 C   0  0  0  0  0  0  0  0  0  0  0  0
   -1.5000    0.0000    0.0000 C   0  0  0  0  0  0  0  0  0  0  0  0
   -0.7500   -1.2990    0.0000 C   0  0  0  0  0  0  0  0  0  0  0  0
   -0.0000   -0.0000    0.0000 C   0  0  0  0  0  0  0  0  0  0  0  0
    0.7500   -1.2990    0.0000 C   0  0  0  0  0  0  0  0  0  0  0  0
    2.2054   -0.9361    0.0000 O   0  0  0  0  0  0  0  0  0  0  0  0
   -0.0000   -2.5981    0.0000 N   0  0  0  0  0  0  0  0  0  0  0  0
    0.7500   -3.8971    0.0000 C   0  0  0  0  0  0  0  0  0  0  0  0
   -0.0000   -5.1962    0.0000 C   0  0  0  0  0  0  0  0  0  0  0  0
    0.7500   -6.4952    0.0000 C   0  0  0  0  0  0  0  0  0  0  0  0
   -0.0000   -7.7942    0.0000 C   0  0  0  0  0  0  0  0  0  0  0  0
    0.7500   -9.0933    0.0000 C   0  0  0  0  0  0  0  0  0  0  0  0
    2.2500   -9.0933    0.0000 C   0  0  0  0  0  0  0  0  0  0  0  0
    3.0000   -7.7942    0.0000 C   0  0  0  0  0  0  0  0  0  0  0  0
    2.2500   -6.4952    0.0000 C   0  0  0  0  0  0  0  0  0  0  0  0
    2.2500   -3.8971    0.0000 C   0  0  0  0  0  0  0  0  0  0  0  0
    3.2920   -2.8182    0.0000 O   0  0  0  0  0  0  0  0  0  0  0  0
    3.0000   -5.1962    0.0000 N   0  0  0  0  0  0  0  0  0  0  0  0
    4.5000   -5.1962    0.0000 C   0  0  0  0  0  0  0  0  0  0  0  0
    5.2500   -6.4952    0.0000 C   0  0  0  0  0  0  0  0  0  0  0  0
    6.7500   -6.4952    0.0000 C   0  0  0  0  0  0  0  0  0  0  0  0
    7.5000   -7.7942    0.0000 C   0  0  0  0  0  0  0  0  0  0  0  0
    9.0000   -7.7942    0.0000 C   0  0  0  0  0  0  0  0  0  0  0  0
    9.7500   -6.4952    0.0000 C   0  0  0  0  0  0  0  0  0  0  0  0
    9.0000   -5.1962    0.0000 C   0  0  0  0  0  0  0  0  0  0  0  0
    7.5000   -5.1962    0.0000 C   0  0  0  0  0  0  0  0  0  0  0  0
    5.2500   -3.8971    0.0000 C   0  0  0  0  0  0  0  0  0  0  0  0
    4.8366   -2.4552    0.0000 O   0  0  0  0  0  0  0  0  0  0  0  0
    6.7388   -4.0800    0.0000 O   0  0  0  0  0  0  0  0  0  0  0  0
    2.6657   -1.6541    0.0000 C   0  0  0  0  0  0  0  0  0  0  0  0
    3.6097   -2.8198    0.0000 C   0  0  0  0  0  0  0  0  0  0  0  0
    5.1015   -2.9766    0.0000 C   0  0  0  0  0  0  0  0  0  0  0  0
    6.0250   -4.1586    0.0000 O   0  0  0  0  0  0  0  0  0  0  0  0
    5.9832   -1.7631    0.0000 N   0  0  0  0  0  0  0  0  0  0  0  0
    7.4749   -1.9199    0.0000 C   0  0  0  0  0  0  0  0  0  0  0  0
    8.3566   -0.7063    0.0000 C   0  0  0  0  0  0  0  0  0  0  0  0
    9.8484   -0.8631    0.0000 C   0  0  0  0  0  0  0  0  0  0  0  0
   10.4585   -2.2335    0.0000 C   0  0  0  0  0  0  0  0  0  0  0  0
   11.9503   -2.3903    0.0000 C   0  0  0  0  0  0  0  0  0  0  0  0
   12.8320   -1.1767    0.0000 C   0  0  0  0  0  0  0  0  0  0  0  0
   12.2219    0.1936    0.0000 C   0  0  0  0  0  0  0  0  0  0  0  0
   10.7301    0.3504    0.0000 C   0  0  0  0  0  0  0  0  0  0  0  0
    8.0850   -3.2902    0.0000 C   0  0  0  0  0  0  0  0  0  0  0  0
    7.0620   -4.3872    0.0000 O   0  0  0  0  0  0  0  0  0  0  0  0
    9.5768   -3.4470    0.0000 N   0  0  0  0  0  0  0  0  0  0  0  0
   10.1869   -4.8173    0.0000 C   0  0  0  0  0  0  0  0  0  0  0  0
   11.6787   -4.9741    0.0000 C   0  0  0  0  0  0  0  0  0  0  0  0
   12.2888   -6.3444    0.0000 C   0  0  0  0  0  0  0  0  0  0  0  0
   11.4071   -7.5579    0.0000 C   0  0  0  0  0  0  0  0  0  0  0  0
   12.0173   -8.9283    0.0000 C   0  0  0  0  0  0  0  0  0  0  0  0
   13.5090   -9.0851    0.0000 C   0  0  0  0  0  0  0  0  0  0  0  0
   14.3907   -7.8715    0.0000 C   0  0  0  0  0  0  0  0  0  0  0  0
   13.7806   -6.5012    0.0000 C   0  0  0  0  0  0  0  0  0  0  0  0
    9.3053   -6.0308    0.0000 C   0  0  0  0  0  0  0  0  0  0  0  0
    7.8957   -5.5177    0.0000 O   0  0  0  0  0  0  0  0  0  0  0  0
    9.9154   -7.4011    0.0000 O   0  0  0  0  0  0  0  0  0  0  0  0
  1  2  1  0
  2  3  1  0
  2  4  1  0
  2  5  1  0
  5  6  1  0
  6  7  1  0
  7  8  1  0
  8  9  1  0
  9 10  1  0
 10 11  1  0
 11 12  1  0
 12 13  1  0
 13 14  1  0
 14 15  1  0
 14 16  1  0
 16 17  1  0
 17 18  2  0
 17 19  1  0
 19 20  1  0
 20 21  1  0
 21 22  1  0
 22 23  2  0
 23 24  1  0
 24 25  2  0
 25 26  1  0
 26 27  2  0
 20 28  1  0
 28 29  2  0
 28 30  1  0
 30 31  1  0
 31 32  1  0
 32 33  1  0
 33 34  2  0
 34 35  1  0
 35 36  2  0
 36 37  1  0
 37 38  2  0
 31 39  1  0
 39 40  2  0
 39 41  1  0
  9 42  1  0
 42 43  1  0
 43 44  1  0
 44 45  2  0
 44 46  1  0
 46 47  1  0
 47 48  1  0
 48 49  1  0
 49 50  2  0
 50 51  1  0
 51 52  2  0
 52 53  1  0
 53 54  2  0
 47 55  1  0
 55 56  2  0
 55 57  1  0
 57 58  1  0
 58 59  1  0
 59 60  1  0
 60 61  2  0
 61 62  1  0
 62 63  2  0
 63 64  1  0
 64 65  2  0
 58 66  1  0
 66 67  2  0
 66 68  1  0
  9  5  1  0
 15 10  1  0
 27 22  1  0
 38 33  1  0
 54 49  1  0
 65 60  1  0
 43  5  1  0
 16 12  1  0
M  END
>  <Title>  (135) 
idAALSgen6

$$$$

     RDKit          2D

 19 21  0  0  0  0  0  0  0  0999 V2000
    2.6491    0.9642    0.0000 C   0  0  0  0  0  0  0  0  0  0  0  0
    1.5000    0.0000    0.0000 C   0  0  0  0  0  0  0  0  0  0  0  0
    2.6491   -0.9642    0.0000 C   0  0  0  0  0  0  0  0  0  0  0  0
    0.7500   -1.2990    0.0000 C   0  0  0  0  0  0  0  0  0  0  0  0
   -0.7500   -1.2990    0.0000 C   0  0  0  0  0  0  0  0  0  0  0  0
   -1.5000    0.0000    0.0000 C   0  0  0  0  0  0  0  0  0  0  0  0
   -0.7500    1.2990    0.0000 C   0  0  0  0  0  0  0  0  0  0  0  0
   -2.2500    1.2990    0.0000 C   0  0  0  0  0  0  0  0  0  0  0  0
   -1.5000    2.5981    0.0000 C   0  0  0  0  0  0  0  0  0  0  0  0
   -3.0000    2.5981    0.0000 C   0  0  0  0  0  0  0  0  0  0  0  0
   -3.7500    3.8971    0.0000 C   0  0  0  0  0  0  0  0  0  0  0  0
   -5.2500    3.8971    0.0000 C   0  0  0  0  0  0  0  0  0  0  0  0
   -6.3107    4.9578    0.0000 C   0  0  0  0  0  0  0  0  0  0  0  0
   -7.3713    3.8971    0.0000 C   0  0  0  0  0  0  0  0  0  0  0  0
   -6.3107    2.8365    0.0000 C   0  0  0  0  0  0  0  0  0  0  0  0
   -0.7500    3.8971    0.0000 C   0  0  0  0  0  0  0  0  0  0  0  0
    0.7500    3.8971    0.0000 C   0  0  0  0  0  0  0  0  0  0  0  0
    1.5000    2.5981    0.0000 C   0  0  0  0  0  0  0  0  0  0  0  0
    0.7500    1.2990    0.0000 C   0  0  0  0  0  0  0  0  0  0  0  0
  1  2  1  0
  2  3  1  0
  2  4  1  0
  4  5  1  0
  5  6  1  0
  6  7  1  0
  7  8  1  0
  7  9  1  0
  9 10  1  0
 10 11  1  0
 11 12  1  0
 12 13  1  0
 13 14  1  0
 14 15  1  0
  9 16  1  0
 16 17  1  0
 17 18  1  0
 18 19  1  0
 19  2  1  0
 19  7  1  0
 15 12  1  0
M  END
>  <Title>  (136) 
idAALTgen6

$$$$

     RDKit          2D

 38 41  0  0  0  0  0  0  0  0999 V2000
    3.0000   -1.5000    0.0000 C   0  0  0  0  0  0  0  0  0  0  0  0
    3.0000    0.0000    0.0000 C   0  0  0  0  0  0  0  0  0  0  0  0
    3.0000    1.5000    0.0000 C   0  0  0  0  0  0  0  0  0  0  0  0
    4.5000    0.0000    0.0000 C   0  0  0  0  0  0  0  0  0  0  0  0
    1.5000    0.0000    0.0000 N   0  0  0  0  0  0  0  0  0  0  0  0
    0.7500   -1.2990    0.0000 C   0  0  0  0  0  0  0  0  0  0  0  0
   -0.7500   -1.2990    0.0000 C   0  0  0  0  0  0  0  0  0  0  0  0
   -1.5000    0.0000    0.0000 C   0  0  0  0  0  0  0  0  0  0  0  0
   -0.7500    1.2990    0.0000 C   0  0  0  0  0  0  0  0  0  0  0  0
    0.7500    1.2990    0.0000 C   0  0  0  0  0  0  0  0  0  0  0  0
   -0.3647    2.3027    0.0000 C   0  0  0  0  0  0  0  0  0  0  0  0
   -1.6638    1.5527    0.0000 C   0  0  0  0  0  0  0  0  0  0  0  0
   -3.0341    2.1628    0.0000 N   0  0  0  0  0  0  0  0  0  0  0  0
   -3.1909    3.6546    0.0000 C   0  0  0  0  0  0  0  0  0  0  0  0
   -1.9773    4.5363    0.0000 O   0  0  0  0  0  0  0  0  0  0  0  0
   -4.5612    4.2647    0.0000 N   0  0  0  0  0  0  0  0  0  0  0  0
   -4.7180    5.7565    0.0000 C   0  0  0  0  0  0  0  0  0  0  0  0
   -6.0883    6.3666    0.0000 C   0  0  0  0  0  0  0  0  0  0  0  0
   -6.2451    7.8584    0.0000 C   0  0  0  0  0  0  0  0  0  0  0  0
   -5.0316    8.7401    0.0000 C   0  0  0  0  0  0  0  0  0  0  0  0
   -5.1884   10.2319    0.0000 C   0  0  0  0  0  0  0  0  0  0  0  0
   -6.5587   10.8420    0.0000 C   0  0  0  0  0  0  0  0  0  0  0  0
   -7.7722    9.9603    0.0000 C   0  0  0  0  0  0  0  0  0  0  0  0
   -7.6154    8.4685    0.0000 C   0  0  0  0  0  0  0  0  0  0  0  0
   -3.5045    6.6382    0.0000 C   0  0  0  0  0  0  0  0  0  0  0  0
   -2.1341    6.0281    0.0000 O   0  0  0  0  0  0  0  0  0  0  0  0
   -3.6612    8.1300    0.0000 N   0  0  0  0  0  0  0  0  0  0  0  0
   -2.4477    9.0116    0.0000 C   0  0  0  0  0  0  0  0  0  0  0  0
   -2.6045   10.5034    0.0000 C   0  0  0  0  0  0  0  0  0  0  0  0
   -1.3910   11.3851    0.0000 C   0  0  0  0  0  0  0  0  0  0  0  0
   -0.0207   10.7750    0.0000 C   0  0  0  0  0  0  0  0  0  0  0  0
    1.1929   11.6567    0.0000 C   0  0  0  0  0  0  0  0  0  0  0  0
    1.0361   13.1485    0.0000 C   0  0  0  0  0  0  0  0  0  0  0  0
   -0.3343   13.7586    0.0000 C   0  0  0  0  0  0  0  0  0  0  0  0
   -1.5478   12.8769    0.0000 C   0  0  0  0  0  0  0  0  0  0  0  0
   -1.0774    8.4015    0.0000 C   0  0  0  0  0  0  0  0  0  0  0  0
   -0.9206    6.9098    0.0000 O   0  0  0  0  0  0  0  0  0  0  0  0
    0.1361    9.2832    0.0000 O   0  0  0  0  0  0  0  0  0  0  0  0
  1  2  1  0
  2  3  1  0
  2  4  1  0
  2  5  1  0
  5  6  1  0
  6  7  1  0
  7  8  1  0
  8  9  1  0
  9 10  1  0
 10 11  1  0
 11 12  1  0
 12 13  2  3
 13 14  1  0
 14 15  2  0
 14 16  1  0
 16 17  1  0
 17 18  1  0
 18 19  1  0
 19 20  2  0
 20 21  1  0
 21 22  2  0
 22 23  1  0
 23 24  2  0
 17 25  1  0
 25 26  2  0
 25 27  1  0
 27 28  1  0
 28 29  1  0
 29 30  1  0
 30 31  2  0
 31 32  1  0
 32 33  2  0
 33 34  1  0
 34 35  2  0
 28 36  1  0
 36 37  2  0
 36 38  1  0
 10  5  1  0
 24 19  1  0
 35 30  1  0
 12  8  1  0
M  END
>  <Title>  (137) 
idAALUgen6

$$$$

     RDKit          2D

 41 43  0  0  0  0  0  0  0  0999 V2000
    3.4635   -1.4266    0.0000 C   0  0  0  0  0  0  0  0  0  0  0  0
    1.9635   -1.4266    0.0000 C   0  0  0  0  0  0  0  0  0  0  0  0
    2.4271   -2.8532    0.0000 C   0  0  0  0  0  0  0  0  0  0  0  0
    3.8943   -3.1650    0.0000 C   0  0  0  0  0  0  0  0  0  0  0  0
    4.3578   -4.5916    0.0000 C   0  0  0  0  0  0  0  0  0  0  0  0
    5.8250   -4.9035    0.0000 C   0  0  0  0  0  0  0  0  0  0  0  0
    6.8287   -3.7888    0.0000 O   0  0  0  0  0  0  0  0  0  0  0  0
    6.2885   -6.3301    0.0000 C   0  0  0  0  0  0  0  0  0  0  0  0
    4.8213   -6.6419    0.0000 O   0  0  0  0  0  0  0  0  0  0  0  0
    6.4453   -7.8219    0.0000 C   0  0  0  0  0  0  0  0  0  0  0  0
    7.9126   -8.1337    0.0000 C   0  0  0  0  0  0  0  0  0  0  0  0
    8.6626   -6.8347    0.0000 C   0  0  0  0  0  0  0  0  0  0  0  0
    7.6589   -5.7200    0.0000 C   0  0  0  0  0  0  0  0  0  0  0  0
    4.8980   -2.0503    0.0000 C   0  0  0  0  0  0  0  0  0  0  0  0
    4.4344   -0.6237    0.0000 O   0  0  0  0  0  0  0  0  0  0  0  0
    6.3652   -2.3622    0.0000 C   0  0  0  0  0  0  0  0  0  0  0  0
    7.3689   -1.2475    0.0000 O   0  0  0  0  0  0  0  0  0  0  0  0
    2.4271    0.0000    0.0000 C   0  0  0  0  0  0  0  0  0  0  0  0
    1.9635    1.4266    0.0000 C   0  0  0  0  0  0  0  0  0  0  0  0
    0.7500    2.3083    0.0000 C   0  0  0  0  0  0  0  0  0  0  0  0
   -0.7500    2.3083    0.0000 C   0  0  0  0  0  0  0  0  0  0  0  0
   -1.9635    1.4266    0.0000 C   0  0  0  0  0  0  0  0  0  0  0  0
   -2.4271    0.0000    0.0000 C   0  0  0  0  0  0  0  0  0  0  0  0
   -1.9635   -1.4266    0.0000 C   0  0  0  0  0  0  0  0  0  0  0  0
   -0.7500   -2.3083    0.0000 C   0  0  0  0  0  0  0  0  0  0  0  0
    0.7500   -2.3083    0.0000 C   0  0  0  0  0  0  0  0  0  0  0  0
    1.2135   -3.7348    0.0000 C   0  0  0  0  0  0  0  0  0  0  0  0
    0.2098   -4.8496    0.0000 C   0  0  0  0  0  0  0  0  0  0  0  0
   -0.6536   -3.6230    0.0000 C   0  0  0  0  0  0  0  0  0  0  0  0
   -1.8802   -4.4864    0.0000 C   0  0  0  0  0  0  0  0  0  0  0  0
    0.1412   -2.7040    0.0000 C   0  0  0  0  0  0  0  0  0  0  0  0
   -1.5170   -2.3964    0.0000 C   0  0  0  0  0  0  0  0  0  0  0  0
   -1.1781   -5.4184    0.0000 C   0  0  0  0  0  0  0  0  0  0  0  0
   -1.5988   -6.8582    0.0000 C   0  0  0  0  0  0  0  0  0  0  0  0
   -3.0785   -7.1039    0.0000 O   0  0  0  0  0  0  0  0  0  0  0  0
   -0.7353   -8.0848    0.0000 C   0  0  0  0  0  0  0  0  0  0  0  0
    0.7620   -8.1745    0.0000 C   0  0  0  0  0  0  0  0  0  0  0  0
    1.7657   -7.0598    0.0000 C   0  0  0  0  0  0  0  0  0  0  0  0
    1.5199   -5.5800    0.0000 C   0  0  0  0  0  0  0  0  0  0  0  0
    3.0173   -5.6698    0.0000 C   0  0  0  0  0  0  0  0  0  0  0  0
    1.9406   -4.1402    0.0000 C   0  0  0  0  0  0  0  0  0  0  0  0
  1  2  1  0
  2  3  1  0
  3  4  1  0
  4  5  1  0
  5  6  1  0
  6  7  1  0
  6  8  1  0
  8  9  1  0
  8 10  1  0
 10 11  1  0
 11 12  1  0
 12 13  1  0
  4 14  1  0
 14 15  1  0
 14 16  1  0
 16 17  1  0
  2 18  1  0
 18 19  1  0
 19 20  1  0
 20 21  1  0
 21 22  1  0
 22 23  1  0
 23 24  1  0
 24 25  1  0
 25 26  1  0
 26 27  1  0
 27 28  1  0
 28 29  1  0
 29 30  1  0
 29 31  1  0
 29 32  1  0
 28 33  1  0
 33 34  1  0
 34 35  1  0
 34 36  1  0
 36 37  1  0
 37 38  1  0
 38 39  1  0
 39 40  1  0
 39 41  1  0
 26  2  1  0
 39 28  1  0
 13  8  1  0
M  END
>  <Title>  (138) 
idAALVgen6

$$$$

     RDKit          2D

 40 43  0  0  0  0  0  0  0  0999 V2000
    3.5121   -6.5437    0.0000 C   0  0  0  0  0  0  0  0  0  0  0  0
    2.2502   -7.3547    0.0000 C   0  0  0  0  0  0  0  0  0  0  0  0
    0.9883   -8.1656    0.0000 C   0  0  0  0  0  0  0  0  0  0  0  0
    3.0612   -8.6166    0.0000 C   0  0  0  0  0  0  0  0  0  0  0  0
    1.4392   -6.0928    0.0000 C   0  0  0  0  0  0  0  0  0  0  0  0
    2.4215   -4.9592    0.0000 C   0  0  0  0  0  0  0  0  0  0  0  0
    2.6350   -3.4744    0.0000 C   0  0  0  0  0  0  0  0  0  0  0  0
    2.0119   -2.1100    0.0000 C   0  0  0  0  0  0  0  0  0  0  0  0
    3.1455   -1.1277    0.0000 C   0  0  0  0  0  0  0  0  0  0  0  0
    4.1278   -2.2613    0.0000 C   0  0  0  0  0  0  0  0  0  0  0  0
    2.4667    0.2099    0.0000 C   0  0  0  0  0  0  0  0  0  0  0  0
    4.2791   -0.1454    0.0000 C   0  0  0  0  0  0  0  0  0  0  0  0
    0.7500   -1.2990    0.0000 C   0  0  0  0  0  0  0  0  0  0  0  0
    1.5000    0.0000    0.0000 C   0  0  0  0  0  0  0  0  0  0  0  0
    0.7500    1.2990    0.0000 C   0  0  0  0  0  0  0  0  0  0  0  0
   -0.7500    1.2990    0.0000 C   0  0  0  0  0  0  0  0  0  0  0  0
   -1.5000    0.0000    0.0000 C   0  0  0  0  0  0  0  0  0  0  0  0
   -3.0000    0.0000    0.0000 C   0  0  0  0  0  0  0  0  0  0  0  0
   -3.7500    1.2990    0.0000 C   0  0  0  0  0  0  0  0  0  0  0  0
   -5.2500    1.2990    0.0000 C   0  0  0  0  0  0  0  0  0  0  0  0
   -6.1317    0.0855    0.0000 C   0  0  0  0  0  0  0  0  0  0  0  0
   -7.5583    0.5490    0.0000 C   0  0  0  0  0  0  0  0  0  0  0  0
   -7.5583    2.0490    0.0000 C   0  0  0  0  0  0  0  0  0  0  0  0
   -6.1317    2.5126    0.0000 C   0  0  0  0  0  0  0  0  0  0  0  0
   -0.7500   -1.2990    0.0000 C   0  0  0  0  0  0  0  0  0  0  0  0
   -2.2077   -0.9454    0.0000 C   0  0  0  0  0  0  0  0  0  0  0  0
   -2.0119   -2.1100    0.0000 C   0  0  0  0  0  0  0  0  0  0  0  0
   -2.6350   -3.4744    0.0000 C   0  0  0  0  0  0  0  0  0  0  0  0
   -2.4215   -4.9592    0.0000 C   0  0  0  0  0  0  0  0  0  0  0  0
   -1.4392   -6.0928    0.0000 C   0  0  0  0  0  0  0  0  0  0  0  0
   -2.2502   -7.3547    0.0000 C   0  0  0  0  0  0  0  0  0  0  0  0
   -1.4651   -8.6328    0.0000 C   0  0  0  0  0  0  0  0  0  0  0  0
   -1.9750  -10.0435    0.0000 C   0  0  0  0  0  0  0  0  0  0  0  0
   -3.3958  -10.5245    0.0000 C   0  0  0  0  0  0  0  0  0  0  0  0
   -4.6577   -9.7135    0.0000 C   0  0  0  0  0  0  0  0  0  0  0  0
   -4.8104   -8.2213    0.0000 C   0  0  0  0  0  0  0  0  0  0  0  0
   -3.7390   -7.1715    0.0000 C   0  0  0  0  0  0  0  0  0  0  0  0
   -5.0009   -6.3606    0.0000 C   0  0  0  0  0  0  0  0  0  0  0  0
   -3.2291   -5.7608    0.0000 C   0  0  0  0  0  0  0  0  0  0  0  0
   -0.0000   -6.5154    0.0000 C   0  0  0  0  0  0  0  0  0  0  0  0
  1  2  1  0
  2  3  1  0
  2  4  1  0
  2  5  1  0
  5  6  1  0
  6  7  1  0
  7  8  1  0
  8  9  1  0
  9 10  1  0
  9 11  1  0
  9 12  1  0
  8 13  1  0
 13 14  1  0
 14 15  1  0
 15 16  1  0
 16 17  1  0
 17 18  1  0
 18 19  1  0
 19 20  1  0
 20 21  1  0
 21 22  1  0
 22 23  1  0
 23 24  1  0
 17 25  1  0
 25 26  1  0
 25 27  1  0
 27 28  1  0
 28 29  1  0
 29 30  1  0
 30 31  1  0
 31 32  1  0
 32 33  1  0
 33 34  1  0
 34 35  1  0
 35 36  1  0
 36 37  1  0
 37 38  1  0
 37 39  1  0
 30 40  1  0
 40  5  1  0
 25 13  1  0
 37 31  1  0
 24 20  1  0
M  END
>  <Title>  (139) 
idAALWgen6

$$$$

     RDKit          2D

 48 54  0  0  0  0  0  0  0  0999 V2000
   -3.7885    2.3473    0.0000 C   0  0  0  0  0  0  0  0  0  0  0  0
   -5.0875    1.5973    0.0000 C   0  0  0  0  0  0  0  0  0  0  0  0
   -6.3866    0.8473    0.0000 C   0  0  0  0  0  0  0  0  0  0  0  0
   -5.8375    2.8963    0.0000 C   0  0  0  0  0  0  0  0  0  0  0  0
   -4.3375    0.2982    0.0000 C   0  0  0  0  0  0  0  0  0  0  0  0
   -5.3412   -0.8165    0.0000 C   0  0  0  0  0  0  0  0  0  0  0  0
   -5.4980   -2.3083    0.0000 C   0  0  0  0  0  0  0  0  0  0  0  0
   -4.7480   -3.6073    0.0000 C   0  0  0  0  0  0  0  0  0  0  0  0
   -5.7517   -4.7220    0.0000 C   0  0  0  0  0  0  0  0  0  0  0  0
   -5.1829   -6.1100    0.0000 C   0  0  0  0  0  0  0  0  0  0  0  0
   -5.9134   -7.4201    0.0000 C   0  0  0  0  0  0  0  0  0  0  0  0
   -7.3931   -7.6658    0.0000 C   0  0  0  0  0  0  0  0  0  0  0  0
   -8.5078   -6.6621    0.0000 C   0  0  0  0  0  0  0  0  0  0  0  0
   -8.4181   -5.1648    0.0000 C   0  0  0  0  0  0  0  0  0  0  0  0
   -7.1915   -4.3014    0.0000 C   0  0  0  0  0  0  0  0  0  0  0  0
   -8.3063   -3.2977    0.0000 C   0  0  0  0  0  0  0  0  0  0  0  0
   -6.4611   -2.9913    0.0000 C   0  0  0  0  0  0  0  0  0  0  0  0
   -3.3777   -4.2174    0.0000 C   0  0  0  0  0  0  0  0  0  0  0  0
   -1.9105   -3.9055    0.0000 C   0  0  0  0  0  0  0  0  0  0  0  0
   -0.9068   -2.7908    0.0000 C   0  0  0  0  0  0  0  0  0  0  0  0
   -0.7500   -1.2990    0.0000 C   0  0  0  0  0  0  0  0  0  0  0  0
    0.2537   -2.4138    0.0000 C   0  0  0  0  0  0  0  0  0  0  0  0
    0.7500   -1.2990    0.0000 C   0  0  0  0  0  0  0  0  0  0  0  0
    1.5000   -2.5981    0.0000 C   0  0  0  0  0  0  0  0  0  0  0  0
    3.0000   -2.5981    0.0000 C   0  0  0  0  0  0  0  0  0  0  0  0
    3.7500   -3.8971    0.0000 C   0  0  0  0  0  0  0  0  0  0  0  0
    5.2418   -4.0539    0.0000 C   0  0  0  0  0  0  0  0  0  0  0  0
    5.5537   -5.5211    0.0000 C   0  0  0  0  0  0  0  0  0  0  0  0
    4.2546   -6.2711    0.0000 C   0  0  0  0  0  0  0  0  0  0  0  0
    3.1399   -5.2674    0.0000 C   0  0  0  0  0  0  0  0  0  0  0  0
    1.5000    0.0000    0.0000 C   0  0  0  0  0  0  0  0  0  0  0  0
    0.7500    1.2990    0.0000 C   0  0  0  0  0  0  0  0  0  0  0  0
   -0.7500    1.2990    0.0000 C   0  0  0  0  0  0  0  0  0  0  0  0
   -1.5000    0.0000    0.0000 C   0  0  0  0  0  0  0  0  0  0  0  0
   -1.9635    1.4266    0.0000 C   0  0  0  0  0  0  0  0  0  0  0  0
   -2.8703    0.6101    0.0000 C   0  0  0  0  0  0  0  0  0  0  0  0
   -2.7135    2.1019    0.0000 C   0  0  0  0  0  0  0  0  0  0  0  0
   -1.3432    2.7120    0.0000 C   0  0  0  0  0  0  0  0  0  0  0  0
   -1.1864    4.2038    0.0000 C   0  0  0  0  0  0  0  0  0  0  0  0
    0.1839    4.8139    0.0000 C   0  0  0  0  0  0  0  0  0  0  0  0
    0.3407    6.3057    0.0000 C   0  0  0  0  0  0  0  0  0  0  0  0
   -0.8728    7.1873    0.0000 C   0  0  0  0  0  0  0  0  0  0  0  0
   -2.2431    6.5772    0.0000 C   0  0  0  0  0  0  0  0  0  0  0  0
   -0.0944    4.0890    0.0000 C   0  0  0  0  0  0  0  0  0  0  0  0
    1.3974    3.9322    0.0000 C   0  0  0  0  0  0  0  0  0  0  0  0
    1.5542    5.4240    0.0000 C   0  0  0  0  0  0  0  0  0  0  0  0
    0.0271    3.3221    0.0000 C   0  0  0  0  0  0  0  0  0  0  0  0
   -2.3999    5.0855    0.0000 C   0  0  0  0  0  0  0  0  0  0  0  0
  1  2  1  0
  2  3  1  0
  2  4  1  0
  2  5  1  0
  5  6  1  0
  6  7  1  0
  7  8  1  0
  8  9  1  0
  9 10  1  0
 10 11  1  0
 11 12  1  0
 12 13  1  0
 13 14  1  0
 14 15  1  0
 15 16  1  0
 15 17  1  0
  8 18  1  0
 18 19  1  0
 19 20  1  0
 20 21  1  0
 21 22  1  0
 21 23  1  0
 23 24  1  0
 24 25  1  0
 25 26  1  0
 26 27  1  0
 27 28  1  0
 28 29  1  0
 29 30  1  0
 23 31  1  0
 31 32  1  0
 32 33  1  0
 33 34  1  0
 34 35  1  0
 34 36  1  0
 36 37  1  0
 37 38  1  0
 38 39  1  0
 39 40  1  0
 40 41  1  0
 41 42  1  0
 42 43  1  0
 43 44  1  0
 44 45  1  0
 45 46  1  0
 45 47  1  0
 43 48  1  0
 36  5  1  0
 47 39  1  0
 15  9  1  0
 34 21  1  0
 48 39  1  0
 30 26  1  0
 46 41  1  0
M  END
>  <Title>  (140) 
idAALXgen6

$$$$

     RDKit          2D

 49 53  0  0  0  0  0  0  0  0999 V2000
    3.6287    2.6897    0.0000 C   0  0  0  0  0  0  0  0  0  0  0  0
    2.7750    1.4564    0.0000 C   0  0  0  0  0  0  0  0  0  0  0  0
    4.2640    1.2756    0.0000 C   0  0  0  0  0  0  0  0  0  0  0  0
    4.8520   -0.1044    0.0000 C   0  0  0  0  0  0  0  0  0  0  0  0
    6.3410   -0.2852    0.0000 C   0  0  0  0  0  0  0  0  0  0  0  0
    6.9290   -1.6651    0.0000 C   0  0  0  0  0  0  0  0  0  0  0  0
    6.0279   -2.8643    0.0000 O   0  0  0  0  0  0  0  0  0  0  0  0
    8.4181   -1.8459    0.0000 C   0  0  0  0  0  0  0  0  0  0  0  0
    8.4422   -0.3461    0.0000 O   0  0  0  0  0  0  0  0  0  0  0  0
    9.9122   -1.7132    0.0000 C   0  0  0  0  0  0  0  0  0  0  0  0
   10.5001   -3.0932    0.0000 C   0  0  0  0  0  0  0  0  0  0  0  0
    9.3694   -4.0788    0.0000 C   0  0  0  0  0  0  0  0  0  0  0  0
    8.0826   -3.3079    0.0000 C   0  0  0  0  0  0  0  0  0  0  0  0
    3.9509   -1.3035    0.0000 C   0  0  0  0  0  0  0  0  0  0  0  0
    3.1598   -1.4018    0.0000 O   0  0  0  0  0  0  0  0  0  0  0  0
    4.5388   -2.6835    0.0000 C   0  0  0  0  0  0  0  0  0  0  0  0
    3.6377   -3.8827    0.0000 O   0  0  0  0  0  0  0  0  0  0  0  0
    3.1339    0.0000    0.0000 C   0  0  0  0  0  0  0  0  0  0  0  0
    2.7750   -1.4564    0.0000 C   0  0  0  0  0  0  0  0  0  0  0  0
    1.7803   -2.5792    0.0000 C   0  0  0  0  0  0  0  0  0  0  0  0
    0.3778   -3.1111    0.0000 C   0  0  0  0  0  0  0  0  0  0  0  0
   -1.1113   -2.9303    0.0000 C   0  0  0  0  0  0  0  0  0  0  0  0
   -2.3458   -2.0782    0.0000 C   0  0  0  0  0  0  0  0  0  0  0  0
   -3.0429   -0.7500    0.0000 C   0  0  0  0  0  0  0  0  0  0  0  0
   -3.0429    0.7500    0.0000 C   0  0  0  0  0  0  0  0  0  0  0  0
   -2.3458    2.0782    0.0000 C   0  0  0  0  0  0  0  0  0  0  0  0
   -1.1113    2.9303    0.0000 C   0  0  0  0  0  0  0  0  0  0  0  0
    0.3778    3.1111    0.0000 C   0  0  0  0  0  0  0  0  0  0  0  0
    1.7803    2.5792    0.0000 C   0  0  0  0  0  0  0  0  0  0  0  0
    2.6324    3.8137    0.0000 C   0  0  0  0  0  0  0  0  0  0  0  0
    4.1275    3.6930    0.0000 C   0  0  0  0  0  0  0  0  0  0  0  0
    3.9288    2.2062    0.0000 C   0  0  0  0  0  0  0  0  0  0  0  0
    3.9868    5.1863    0.0000 C   0  0  0  0  0  0  0  0  0  0  0  0
    5.2097    6.0549    0.0000 C   0  0  0  0  0  0  0  0  0  0  0  0
    6.5734    5.4301    0.0000 C   0  0  0  0  0  0  0  0  0  0  0  0
    6.7141    3.9368    0.0000 C   0  0  0  0  0  0  0  0  0  0  0  0
    7.9370    4.8054    0.0000 C   0  0  0  0  0  0  0  0  0  0  0  0
    8.0778    3.3120    0.0000 C   0  0  0  0  0  0  0  0  0  0  0  0
    9.3007    4.1806    0.0000 C   0  0  0  0  0  0  0  0  0  0  0  0
   10.6644    3.5558    0.0000 C   0  0  0  0  0  0  0  0  0  0  0  0
   11.8873    4.4244    0.0000 C   0  0  0  0  0  0  0  0  0  0  0  0
   11.9035    5.9243    0.0000 C   0  0  0  0  0  0  0  0  0  0  0  0
   13.3349    6.3725    0.0000 C   0  0  0  0  0  0  0  0  0  0  0  0
   14.2035    5.1495    0.0000 C   0  0  0  0  0  0  0  0  0  0  0  0
   13.3089    3.9456    0.0000 C   0  0  0  0  0  0  0  0  0  0  0  0
    8.2186    1.8186    0.0000 C   0  0  0  0  0  0  0  0  0  0  0  0
    6.9956    0.9500    0.0000 C   0  0  0  0  0  0  0  0  0  0  0  0
    5.6320    1.5748    0.0000 C   0  0  0  0  0  0  0  0  0  0  0  0
    5.4912    3.0682    0.0000 C   0  0  0  0  0  0  0  0  0  0  0  0
  1  2  1  0
  2  3  1  0
  3  4  1  0
  4  5  1  0
  5  6  1  0
  6  7  1  0
  6  8  1  0
  8  9  1  0
  8 10  1  0
 10 11  1  0
 11 12  1  0
 12 13  1  0
  4 14  1  0
 14 15  1  0
 14 16  1  0
 16 17  1  0
  2 18  1  0
 18 19  1  0
 19 20  1  0
 20 21  1  0
 21 22  1  0
 22 23  1  0
 23 24  1  0
 24 25  1  0
 25 26  1  0
 26 27  1  0
 27 28  1  0
 28 29  1  0
 29 30  1  0
 30 31  1  0
 31 32  1  0
 31 33  1  0
 33 34  1  0
 34 35  1  0
 35 36  1  0
 36 37  1  0
 36 38  1  0
 38 39  1  0
 39 40  1  0
 40 41  1  0
 41 42  1  0
 42 43  1  0
 43 44  1  0
 44 45  1  0
 38 46  1  0
 46 47  1  0
 47 48  1  0
 48 49  1  0
 29  2  1  0
 49 31  1  0
 13  8  1  0
 49 36  1  0
 45 41  1  0
M  END
>  <Title>  (141) 
idAALYgen6

$$$$

     RDKit          2D

 58 63  0  0  0  0  0  0  0  0999 V2000
    7.5000   -2.5981    0.0000 C   0  0  0  0  0  0  0  0  0  0  0  0
    6.7500   -3.8971    0.0000 C   0  0  0  0  0  0  0  0  0  0  0  0
    5.2500   -3.8971    0.0000 C   0  0  0  0  0  0  0  0  0  0  0  0
    4.5000   -2.5981    0.0000 O   0  0  0  0  0  0  0  0  0  0  0  0
    4.5000   -5.1962    0.0000 C   0  0  0  0  0  0  0  0  0  0  0  0
    5.2500   -6.4952    0.0000 C   0  0  0  0  0  0  0  0  0  0  0  0
    6.7500   -6.4952    0.0000 C   0  0  0  0  0  0  0  0  0  0  0  0
    7.5000   -7.7942    0.0000 C   0  0  0  0  0  0  0  0  0  0  0  0
    9.0000   -7.7942    0.0000 C   0  0  0  0  0  0  0  0  0  0  0  0
    9.7500   -6.4952    0.0000 C   0  0  0  0  0  0  0  0  0  0  0  0
    9.0000   -5.1962    0.0000 C   0  0  0  0  0  0  0  0  0  0  0  0
    7.5000   -5.1962    0.0000 C   0  0  0  0  0  0  0  0  0  0  0  0
    3.0000   -5.1962    0.0000 N   0  0  0  0  0  0  0  0  0  0  0  0
    2.2500   -3.8971    0.0000 C   0  0  0  0  0  0  0  0  0  0  0  0
    3.0000   -2.5981    0.0000 O   0  0  0  0  0  0  0  0  0  0  0  0
    0.7500   -3.8971    0.0000 C   0  0  0  0  0  0  0  0  0  0  0  0
   -0.0000   -5.1962    0.0000 C   0  0  0  0  0  0  0  0  0  0  0  0
    0.7500   -6.4952    0.0000 C   0  0  0  0  0  0  0  0  0  0  0  0
   -0.0000   -7.7942    0.0000 C   0  0  0  0  0  0  0  0  0  0  0  0
    0.7500   -9.0933    0.0000 C   0  0  0  0  0  0  0  0  0  0  0  0
    2.2500   -9.0933    0.0000 C   0  0  0  0  0  0  0  0  0  0  0  0
    3.0000   -7.7942    0.0000 C   0  0  0  0  0  0  0  0  0  0  0  0
    2.2500   -6.4952    0.0000 C   0  0  0  0  0  0  0  0  0  0  0  0
   -0.0000   -2.5981    0.0000 N   0  0  0  0  0  0  0  0  0  0  0  0
    0.7500   -1.2990    0.0000 C   0  0  0  0  0  0  0  0  0  0  0  0
    2.2500   -1.2990    0.0000 O   0  0  0  0  0  0  0  0  0  0  0  0
   -0.0000    0.0000    0.0000 C   0  0  0  0  0  0  0  0  0  0  0  0
   -1.5000    0.0000    0.0000 C   0  0  0  0  0  0  0  0  0  0  0  0
   -0.7500   -1.2990    0.0000 C   0  0  0  0  0  0  0  0  0  0  0  0
    0.7500   -1.2990    0.0000 C   0  0  0  0  0  0  0  0  0  0  0  0
    1.5000   -2.5981    0.0000 N   0  0  0  0  0  0  0  0  0  0  0  0
    0.7500   -3.8971    0.0000 C   0  0  0  0  0  0  0  0  0  0  0  0
   -0.7500   -3.8971    0.0000 O   0  0  0  0  0  0  0  0  0  0  0  0
    1.5000   -5.1962    0.0000 C   0  0  0  0  0  0  0  0  0  0  0  0
    0.7500   -6.4952    0.0000 C   0  0  0  0  0  0  0  0  0  0  0  0
    1.5000   -7.7942    0.0000 C   0  0  0  0  0  0  0  0  0  0  0  0
    0.7500   -9.0933    0.0000 C   0  0  0  0  0  0  0  0  0  0  0  0
    1.5000  -10.3923    0.0000 C   0  0  0  0  0  0  0  0  0  0  0  0
    3.0000  -10.3923    0.0000 C   0  0  0  0  0  0  0  0  0  0  0  0
    3.7500   -9.0933    0.0000 C   0  0  0  0  0  0  0  0  0  0  0  0
    3.0000   -7.7942    0.0000 C   0  0  0  0  0  0  0  0  0  0  0  0
    3.0000   -5.1962    0.0000 C   0  0  0  0  0  0  0  0  0  0  0  0
    3.7500   -3.8971    0.0000 O   0  0  0  0  0  0  0  0  0  0  0  0
    3.7500   -6.4952    0.0000 N   0  0  0  0  0  0  0  0  0  0  0  0
    5.2500   -6.4952    0.0000 C   0  0  0  0  0  0  0  0  0  0  0  0
    6.0000   -7.7942    0.0000 C   0  0  0  0  0  0  0  0  0  0  0  0
    7.5000   -7.7942    0.0000 C   0  0  0  0  0  0  0  0  0  0  0  0
    8.2500   -9.0933    0.0000 C   0  0  0  0  0  0  0  0  0  0  0  0
    9.7500   -9.0933    0.0000 C   0  0  0  0  0  0  0  0  0  0  0  0
   10.5000   -7.7942    0.0000 C   0  0  0  0  0  0  0  0  0  0  0  0
    9.7500   -6.4952    0.0000 C   0  0  0  0  0  0  0  0  0  0  0  0
    8.2500   -6.4952    0.0000 C   0  0  0  0  0  0  0  0  0  0  0  0
    6.0000   -5.1962    0.0000 C   0  0  0  0  0  0  0  0  0  0  0  0
    5.5866   -3.7542    0.0000 O   0  0  0  0  0  0  0  0  0  0  0  0
    7.4554   -4.8332    0.0000 O   0  0  0  0  0  0  0  0  0  0  0  0
    1.5000    0.0000    0.0000 C   0  0  0  0  0  0  0  0  0  0  0  0
    0.7500    1.2990    0.0000 C   0  0  0  0  0  0  0  0  0  0  0  0
   -0.7500    1.2990    0.0000 C   0  0  0  0  0  0  0  0  0  0  0  0
  1  2  1  0
  2  3  1  0
  3  4  1  0
  3  5  1  0
  5  6  1  0
  6  7  1  0
  7  8  2  0
  8  9  1  0
  9 10  2  0
 10 11  1  0
 11 12  2  0
  5 13  1  0
 13 14  1  0
 14 15  2  0
 14 16  1  0
 16 17  1  0
 17 18  1  0
 18 19  2  0
 19 20  1  0
 20 21  2  0
 21 22  1  0
 22 23  2  0
 16 24  1  0
 24 25  1  0
 25 26  2  0
 25 27  1  0
 27 28  1  0
 28 29  1  0
 29 30  1  0
 30 31  1  0
 31 32  1  0
 32 33  2  0
 32 34  1  0
 34 35  1  0
 35 36  1  0
 36 37  2  0
 37 38  1  0
 38 39  2  0
 39 40  1  0
 40 41  2  0
 34 42  1  0
 42 43  2  0
 42 44  1  0
 44 45  1  0
 45 46  1  0
 46 47  1  0
 47 48  2  0
 48 49  1  0
 49 50  2  0
 50 51  1  0
 51 52  2  0
 45 53  1  0
 53 54  2  0
 53 55  1  0
 30 56  1  0
 56 57  1  0
 57 58  1  0
 12  7  1  0
 23 18  1  0
 57 27  1  0
 58 28  1  0
 41 36  1  0
 52 47  1  0
M  END
>  <Title>  (142) 
idAALZgen6

$$$$

     RDKit          2D

 34 37  0  0  0  0  0  0  0  0999 V2000
   -4.4095    2.0130    0.0000 C   0  0  0  0  0  0  0  0  0  0  0  0
   -2.9095    2.0130    0.0000 C   0  0  0  0  0  0  0  0  0  0  0  0
   -1.4095    2.0130    0.0000 C   0  0  0  0  0  0  0  0  0  0  0  0
   -2.9095    3.5130    0.0000 C   0  0  0  0  0  0  0  0  0  0  0  0
   -2.9095    0.5130    0.0000 C   0  0  0  0  0  0  0  0  0  0  0  0
   -4.3191    0.0000    0.0000 C   0  0  0  0  0  0  0  0  0  0  0  0
   -5.0691   -1.2990    0.0000 C   0  0  0  0  0  0  0  0  0  0  0  0
   -4.8086   -2.7762    0.0000 C   0  0  0  0  0  0  0  0  0  0  0  0
   -6.1076   -3.5262    0.0000 C   0  0  0  0  0  0  0  0  0  0  0  0
   -5.9955   -5.0221    0.0000 C   0  0  0  0  0  0  0  0  0  0  0  0
   -7.0951   -6.0423    0.0000 C   0  0  0  0  0  0  0  0  0  0  0  0
   -8.5784   -5.8188    0.0000 C   0  0  0  0  0  0  0  0  0  0  0  0
   -9.3284   -4.5197    0.0000 C   0  0  0  0  0  0  0  0  0  0  0  0
   -8.7804   -3.1234    0.0000 C   0  0  0  0  0  0  0  0  0  0  0  0
   -7.3470   -2.6813    0.0000 C   0  0  0  0  0  0  0  0  0  0  0  0
   -8.0970   -1.3822    0.0000 C   0  0  0  0  0  0  0  0  0  0  0  0
   -6.2474   -1.6610    0.0000 C   0  0  0  0  0  0  0  0  0  0  0  0
   -3.6595   -3.7404    0.0000 C   0  0  0  0  0  0  0  0  0  0  0  0
   -2.1595   -3.7404    0.0000 C   0  0  0  0  0  0  0  0  0  0  0  0
   -1.0105   -2.7762    0.0000 C   0  0  0  0  0  0  0  0  0  0  0  0
   -0.7500   -1.2990    0.0000 C   0  0  0  0  0  0  0  0  0  0  0  0
    0.2142   -2.4481    0.0000 C   0  0  0  0  0  0  0  0  0  0  0  0
    0.7500   -1.2990    0.0000 C   0  0  0  0  0  0  0  0  0  0  0  0
    1.5000   -2.5981    0.0000 C   0  0  0  0  0  0  0  0  0  0  0  0
    3.0000   -2.5981    0.0000 C   0  0  0  0  0  0  0  0  0  0  0  0
    3.7500   -3.8971    0.0000 C   0  0  0  0  0  0  0  0  0  0  0  0
    5.2418   -4.0539    0.0000 C   0  0  0  0  0  0  0  0  0  0  0  0
    5.5537   -5.5211    0.0000 C   0  0  0  0  0  0  0  0  0  0  0  0
    4.2546   -6.2711    0.0000 C   0  0  0  0  0  0  0  0  0  0  0  0
    3.1399   -5.2674    0.0000 C   0  0  0  0  0  0  0  0  0  0  0  0
    1.5000    0.0000    0.0000 C   0  0  0  0  0  0  0  0  0  0  0  0
    0.7500    1.2990    0.0000 C   0  0  0  0  0  0  0  0  0  0  0  0
   -0.7500    1.2990    0.0000 C   0  0  0  0  0  0  0  0  0  0  0  0
   -1.5000    0.0000    0.0000 C   0  0  0  0  0  0  0  0  0  0  0  0
  1  2  1  0
  2  3  1  0
  2  4  1  0
  2  5  1  0
  5  6  1  0
  6  7  1  0
  7  8  1  0
  8  9  1  0
  9 10  1  0
 10 11  1  0
 11 12  1  0
 12 13  1  0
 13 14  1  0
 14 15  1  0
 15 16  1  0
 15 17  1  0
  8 18  1  0
 18 19  1  0
 19 20  1  0
 20 21  1  0
 21 22  1  0
 21 23  1  0
 23 24  1  0
 24 25  1  0
 25 26  1  0
 26 27  1  0
 27 28  1  0
 28 29  1  0
 29 30  1  0
 23 31  1  0
 31 32  1  0
 32 33  1  0
 33 34  1  0
 34  5  1  0
 15  9  1  0
 34 21  1  0
 30 26  1  0
M  END
>  <Title>  (143) 
idAAMAgen6

$$$$

     RDKit          2D

 68 74  0  0  0  0  0  0  0  0999 V2000
    7.5000   -0.0000    0.0000 C   0  0  0  0  0  0  0  0  0  0  0  0
    6.7500   -1.2990    0.0000 C   0  0  0  0  0  0  0  0  0  0  0  0
    5.2500   -1.2990    0.0000 O   0  0  0  0  0  0  0  0  0  0  0  0
    7.5000   -2.5981    0.0000 C   0  0  0  0  0  0  0  0  0  0  0  0
    9.0000   -2.5981    0.0000 C   0  0  0  0  0  0  0  0  0  0  0  0
    9.7500   -1.2990    0.0000 C   0  0  0  0  0  0  0  0  0  0  0  0
   11.2500   -1.2990    0.0000 C   0  0  0  0  0  0  0  0  0  0  0  0
   12.0000   -0.0000    0.0000 C   0  0  0  0  0  0  0  0  0  0  0  0
   11.2500    1.2990    0.0000 C   0  0  0  0  0  0  0  0  0  0  0  0
    9.7500    1.2990    0.0000 C   0  0  0  0  0  0  0  0  0  0  0  0
    9.0000   -0.0000    0.0000 C   0  0  0  0  0  0  0  0  0  0  0  0
    6.7500   -3.8971    0.0000 N   0  0  0  0  0  0  0  0  0  0  0  0
    5.2500   -3.8971    0.0000 C   0  0  0  0  0  0  0  0  0  0  0  0
    4.5000   -2.5981    0.0000 O   0  0  0  0  0  0  0  0  0  0  0  0
    4.5000   -5.1962    0.0000 C   0  0  0  0  0  0  0  0  0  0  0  0
    5.2500   -6.4952    0.0000 C   0  0  0  0  0  0  0  0  0  0  0  0
    6.7500   -6.4952    0.0000 C   0  0  0  0  0  0  0  0  0  0  0  0
    7.5000   -7.7942    0.0000 C   0  0  0  0  0  0  0  0  0  0  0  0
    9.0000   -7.7942    0.0000 C   0  0  0  0  0  0  0  0  0  0  0  0
    9.7500   -6.4952    0.0000 C   0  0  0  0  0  0  0  0  0  0  0  0
    9.0000   -5.1962    0.0000 C   0  0  0  0  0  0  0  0  0  0  0  0
    7.5000   -5.1962    0.0000 C   0  0  0  0  0  0  0  0  0  0  0  0
    3.0000   -5.1962    0.0000 N   0  0  0  0  0  0  0  0  0  0  0  0
    2.2500   -3.8971    0.0000 C   0  0  0  0  0  0  0  0  0  0  0  0
    3.0000   -2.5981    0.0000 O   0  0  0  0  0  0  0  0  0  0  0  0
    0.7500   -3.8971    0.0000 C   0  0  0  0  0  0  0  0  0  0  0  0
   -0.0000   -5.1962    0.0000 C   0  0  0  0  0  0  0  0  0  0  0  0
    0.7500   -6.4952    0.0000 C   0  0  0  0  0  0  0  0  0  0  0  0
   -0.0000   -7.7942    0.0000 C   0  0  0  0  0  0  0  0  0  0  0  0
    0.7500   -9.0933    0.0000 C   0  0  0  0  0  0  0  0  0  0  0  0
    2.2500   -9.0933    0.0000 C   0  0  0  0  0  0  0  0  0  0  0  0
    3.0000   -7.7942    0.0000 C   0  0  0  0  0  0  0  0  0  0  0  0
    2.2500   -6.4952    0.0000 C   0  0  0  0  0  0  0  0  0  0  0  0
   -0.0000   -2.5981    0.0000 N   0  0  0  0  0  0  0  0  0  0  0  0
    0.7500   -1.2990    0.0000 C   0  0  0  0  0  0  0  0  0  0  0  0
    2.2500   -1.2990    0.0000 O   0  0  0  0  0  0  0  0  0  0  0  0
   -0.0000    0.0000    0.0000 C   0  0  0  0  0  0  0  0  0  0  0  0
   -1.5000    0.0000    0.0000 C   0  0  0  0  0  0  0  0  0  0  0  0
   -0.7500   -1.2990    0.0000 C   0  0  0  0  0  0  0  0  0  0  0  0
    0.7500   -1.2990    0.0000 C   0  0  0  0  0  0  0  0  0  0  0  0
    1.5000   -2.5981    0.0000 N   0  0  0  0  0  0  0  0  0  0  0  0
    0.7500   -3.8971    0.0000 C   0  0  0  0  0  0  0  0  0  0  0  0
   -0.7500   -3.8971    0.0000 O   0  0  0  0  0  0  0  0  0  0  0  0
    1.5000   -5.1962    0.0000 C   0  0  0  0  0  0  0  0  0  0  0  0
    0.7500   -6.4952    0.0000 C   0  0  0  0  0  0  0  0  0  0  0  0
    1.5000   -7.7942    0.0000 C   0  0  0  0  0  0  0  0  0  0  0  0
    0.7500   -9.0933    0.0000 C   0  0  0  0  0  0  0  0  0  0  0  0
    1.5000  -10.3923    0.0000 C   0  0  0  0  0  0  0  0  0  0  0  0
    3.0000  -10.3923    0.0000 C   0  0  0  0  0  0  0  0  0  0  0  0
    3.7500   -9.0933    0.0000 C   0  0  0  0  0  0  0  0  0  0  0  0
    3.0000   -7.7942    0.0000 C   0  0  0  0  0  0  0  0  0  0  0  0
    3.0000   -5.1962    0.0000 C   0  0  0  0  0  0  0  0  0  0  0  0
    3.7500   -3.8971    0.0000 O   0  0  0  0  0  0  0  0  0  0  0  0
    3.7500   -6.4952    0.0000 N   0  0  0  0  0  0  0  0  0  0  0  0
    5.2500   -6.4952    0.0000 C   0  0  0  0  0  0  0  0  0  0  0  0
    6.0000   -7.7942    0.0000 C   0  0  0  0  0  0  0  0  0  0  0  0
    7.5000   -7.7942    0.0000 C   0  0  0  0  0  0  0  0  0  0  0  0
    8.2500   -9.0933    0.0000 C   0  0  0  0  0  0  0  0  0  0  0  0
    9.7500   -9.0933    0.0000 C   0  0  0  0  0  0  0  0  0  0  0  0
   10.5000   -7.7942    0.0000 C   0  0  0  0  0  0  0  0  0  0  0  0
    9.7500   -6.4952    0.0000 C   0  0  0  0  0  0  0  0  0  0  0  0
    8.2500   -6.4952    0.0000 C   0  0  0  0  0  0  0  0  0  0  0  0
    6.0000   -5.1962    0.0000 C   0  0  0  0  0  0  0  0  0  0  0  0
    5.5866   -3.7542    0.0000 O   0  0  0  0  0  0  0  0  0  0  0  0
    7.4554   -4.8332    0.0000 O   0  0  0  0  0  0  0  0  0  0  0  0
    1.5000    0.0000    0.0000 C   0  0  0  0  0  0  0  0  0  0  0  0
    0.7500    1.2990    0.0000 C   0  0  0  0  0  0  0  0  0  0  0  0
   -0.7500    1.2990    0.0000 C   0  0  0  0  0  0  0  0  0  0  0  0
  1  2  1  0
  2  3  1  0
  2  4  1  0
  4  5  1  0
  5  6  1  0
  6  7  2  0
  7  8  1  0
  8  9  2  0
  9 10  1  0
 10 11  2  0
  4 12  1  0
 12 13  1  0
 13 14  2  0
 13 15  1  0
 15 16  1  0
 16 17  1  0
 17 18  2  0
 18 19  1  0
 19 20  2  0
 20 21  1  0
 21 22  2  0
 15 23  1  0
 23 24  1  0
 24 25  2  0
 24 26  1  0
 26 27  1  0
 27 28  1  0
 28 29  2  0
 29 30  1  0
 30 31  2  0
 31 32  1  0
 32 33  2  0
 26 34  1  0
 34 35  1  0
 35 36  2  0
 35 37  1  0
 37 38  1  0
 38 39  1  0
 39 40  1  0
 40 41  1  0
 41 42  1  0
 42 43  2  0
 42 44  1  0
 44 45  1  0
 45 46  1  0
 46 47  2  0
 47 48  1  0
 48 49  2  0
 49 50  1  0
 50 51  2  0
 44 52  1  0
 52 53  2  0
 52 54  1  0
 54 55  1  0
 55 56  1  0
 56 57  1  0
 57 58  2  0
 58 59  1  0
 59 60  2  0
 60 61  1  0
 61 62  2  0
 55 63  1  0
 63 64  2  0
 63 65  1  0
 40 66  1  0
 66 67  1  0
 67 68  1  0
 11  6  1  0
 22 17  1  0
 33 28  1  0
 67 37  1  0
 68 38  1  0
 51 46  1  0
 62 57  1  0
M  END
>  <Title>  (144) 
idAAMBgen6

$$$$

     RDKit          2D

 21 22  0  0  0  0  0  0  0  0999 V2000
    1.3303   -5.8674    0.0000 C   0  0  0  0  0  0  0  0  0  0  0  0
    2.7307   -6.4049    0.0000 C   0  0  0  0  0  0  0  0  0  0  0  0
    3.1189   -4.9560    0.0000 C   0  0  0  0  0  0  0  0  0  0  0  0
    2.0583   -3.8954    0.0000 C   0  0  0  0  0  0  0  0  0  0  0  0
    2.4465   -2.4465    0.0000 C   0  0  0  0  0  0  0  0  0  0  0  0
    1.3858   -1.3858    0.0000 C   0  0  0  0  0  0  0  0  0  0  0  0
    1.9598    0.0000    0.0000 C   0  0  0  0  0  0  0  0  0  0  0  0
    1.3858    1.3858    0.0000 C   0  0  0  0  0  0  0  0  0  0  0  0
    0.0000    1.9598    0.0000 C   0  0  0  0  0  0  0  0  0  0  0  0
   -1.3858    1.3858    0.0000 C   0  0  0  0  0  0  0  0  0  0  0  0
   -1.9598    0.0000    0.0000 C   0  0  0  0  0  0  0  0  0  0  0  0
   -3.4598    0.0000    0.0000 C   0  0  0  0  0  0  0  0  0  0  0  0
   -3.4598    1.5000    0.0000 C   0  0  0  0  0  0  0  0  0  0  0  0
   -3.4598   -1.5000    0.0000 C   0  0  0  0  0  0  0  0  0  0  0  0
   -4.9598    0.0000    0.0000 C   0  0  0  0  0  0  0  0  0  0  0  0
   -1.3858   -1.3858    0.0000 C   0  0  0  0  0  0  0  0  0  0  0  0
   -0.0000   -1.9598    0.0000 C   0  0  0  0  0  0  0  0  0  0  0  0
    2.0497   -7.7414    0.0000 C   0  0  0  0  0  0  0  0  0  0  0  0
    3.1104   -8.8021    0.0000 C   0  0  0  0  0  0  0  0  0  0  0  0
    4.4469   -8.1211    0.0000 C   0  0  0  0  0  0  0  0  0  0  0  0
    4.2122   -6.6396    0.0000 C   0  0  0  0  0  0  0  0  0  0  0  0
  1  2  1  0
  2  3  1  0
  3  4  1  0
  4  5  1  0
  5  6  1  0
  6  7  1  0
  7  8  1  0
  8  9  1  0
  9 10  1  0
 10 11  1  0
 11 12  1  0
 12 13  1  0
 12 14  1  0
 12 15  1  0
 11 16  1  0
 16 17  1  0
  2 18  1  0
 18 19  1  0
 19 20  1  0
 20 21  1  0
 21  2  1  0
 17  6  1  0
M  END
>  <Title>  (145) 
idAAMCgen6

$$$$

     RDKit          2D

 62 69  0  0  0  0  0  0  0  0999 V2000
   -1.9605    4.6312    0.0000 O   0  0  0  0  0  0  0  0  0  0  0  0
   -3.2463    3.8586    0.0000 C   0  0  0  0  0  0  0  0  0  0  0  0
   -3.4031    2.3668    0.0000 N   0  0  0  0  0  0  0  0  0  0  0  0
   -2.1895    1.4851    0.0000 C   0  0  0  0  0  0  0  0  0  0  0  0
   -0.8192    2.0952    0.0000 C   0  0  0  0  0  0  0  0  0  0  0  0
    0.3943    1.2135    0.0000 C   0  0  0  0  0  0  0  0  0  0  0  0
    1.2760    0.0000    0.0000 C   0  0  0  0  0  0  0  0  0  0  0  0
    0.3943   -1.2135    0.0000 C   0  0  0  0  0  0  0  0  0  0  0  0
   -1.0323   -0.7500    0.0000 C   0  0  0  0  0  0  0  0  0  0  0  0
   -2.3463   -0.0067    0.0000 C   0  0  0  0  0  0  0  0  0  0  0  0
   -1.0323    0.7500    0.0000 N   0  0  0  0  0  0  0  0  0  0  0  0
   -2.2458    1.6317    0.0000 C   0  0  0  0  0  0  0  0  0  0  0  0
   -2.0890    3.1235    0.0000 C   0  0  0  0  0  0  0  0  0  0  0  0
   -3.3025    4.0051    0.0000 C   0  0  0  0  0  0  0  0  0  0  0  0
   -3.1458    5.4969    0.0000 C   0  0  0  0  0  0  0  0  0  0  0  0
   -4.3593    6.3786    0.0000 C   0  0  0  0  0  0  0  0  0  0  0  0
   -5.7296    5.7685    0.0000 C   0  0  0  0  0  0  0  0  0  0  0  0
   -5.8864    4.2767    0.0000 C   0  0  0  0  0  0  0  0  0  0  0  0
   -4.6729    3.3950    0.0000 C   0  0  0  0  0  0  0  0  0  0  0  0
   -4.4598    4.7402    0.0000 C   0  0  0  0  0  0  0  0  0  0  0  0
   -4.3030    6.2320    0.0000 C   0  0  0  0  0  0  0  0  0  0  0  0
   -5.5165    7.1137    0.0000 C   0  0  0  0  0  0  0  0  0  0  0  0
   -6.8869    6.5036    0.0000 C   0  0  0  0  0  0  0  0  0  0  0  0
   -7.0436    5.0118    0.0000 C   0  0  0  0  0  0  0  0  0  0  0  0
   -5.8301    4.1301    0.0000 C   0  0  0  0  0  0  0  0  0  0  0  0
   -5.6733    5.6219    0.0000 C   0  0  0  0  0  0  0  0  0  0  0  0
   -4.4598    4.7402    0.0000 C   0  0  0  0  0  0  0  0  0  0  0  0
   -3.2778    5.6638    0.0000 O   0  0  0  0  0  0  0  0  0  0  0  0
   -4.6166    3.2485    0.0000 N   0  0  0  0  0  0  0  0  0  0  0  0
   -3.4031    2.3668    0.0000 C   0  0  0  0  0  0  0  0  0  0  0  0
   -3.5599    0.8750    0.0000 C   0  0  0  0  0  0  0  0  0  0  0  0
   -2.3463   -0.0067    0.0000 C   0  0  0  0  0  0  0  0  0  0  0  0
   -2.5031   -1.4985    0.0000 C   0  0  0  0  0  0  0  0  0  0  0  0
   -1.2896   -2.3801    0.0000 C   0  0  0  0  0  0  0  0  0  0  0  0
    0.0807   -1.7700    0.0000 C   0  0  0  0  0  0  0  0  0  0  0  0
    0.2375   -0.2783    0.0000 C   0  0  0  0  0  0  0  0  0  0  0  0
   -0.9760    0.6034    0.0000 C   0  0  0  0  0  0  0  0  0  0  0  0
   -2.0328    2.9769    0.0000 C   0  0  0  0  0  0  0  0  0  0  0  0
   -1.6953    4.4384    0.0000 O   0  0  0  0  0  0  0  0  0  0  0  0
   -0.8192    2.0952    0.0000 N   0  0  0  0  0  0  0  0  0  0  0  0
    0.5511    2.7053    0.0000 C   0  0  0  0  0  0  0  0  0  0  0  0
    1.7646    1.8236    0.0000 C   0  0  0  0  0  0  0  0  0  0  0  0
    3.1349    2.4337    0.0000 C   0  0  0  0  0  0  0  0  0  0  0  0
    4.3485    1.5521    0.0000 C   0  0  0  0  0  0  0  0  0  0  0  0
    5.7188    2.1622    0.0000 C   0  0  0  0  0  0  0  0  0  0  0  0
    5.8756    3.6539    0.0000 C   0  0  0  0  0  0  0  0  0  0  0  0
    4.6620    4.5356    0.0000 C   0  0  0  0  0  0  0  0  0  0  0  0
    3.2917    3.9255    0.0000 C   0  0  0  0  0  0  0  0  0  0  0  0
    0.7079    4.1971    0.0000 C   0  0  0  0  0  0  0  0  0  0  0  0
   -0.5056    5.0788    0.0000 O   0  0  0  0  0  0  0  0  0  0  0  0
    2.0782    4.8072    0.0000 N   0  0  0  0  0  0  0  0  0  0  0  0
    2.2350    6.2990    0.0000 C   0  0  0  0  0  0  0  0  0  0  0  0
    3.6053    6.9091    0.0000 C   0  0  0  0  0  0  0  0  0  0  0  0
    3.7621    8.4009    0.0000 C   0  0  0  0  0  0  0  0  0  0  0  0
    5.1324    9.0110    0.0000 C   0  0  0  0  0  0  0  0  0  0  0  0
    5.2892   10.5028    0.0000 C   0  0  0  0  0  0  0  0  0  0  0  0
    4.0757   11.3844    0.0000 C   0  0  0  0  0  0  0  0  0  0  0  0
    2.7054   10.7743    0.0000 C   0  0  0  0  0  0  0  0  0  0  0  0
    2.5486    9.2825    0.0000 C   0  0  0  0  0  0  0  0  0  0  0  0
    1.0215    7.1807    0.0000 C   0  0  0  0  0  0  0  0  0  0  0  0
   -0.3488    6.5706    0.0000 O   0  0  0  0  0  0  0  0  0  0  0  0
    1.1783    8.6724    0.0000 O   0  0  0  0  0  0  0  0  0  0  0  0
  1  2  2  0
  2  3  1  0
  3  4  1  0
  4  5  1  0
  5  6  1  0
  6  7  1  0
  7  8  1  0
  8  9  1  0
  9 10  1  0
  9 11  1  0
 11 12  1  0
 12 13  1  0
 13 14  1  0
 14 15  2  0
 15 16  1  0
 16 17  2  0
 17 18  1  0
 18 19  2  0
  2 20  1  0
 20 21  1  0
 21 22  1  0
 22 23  1  0
 23 24  1  0
 24 25  1  0
 24 26  1  0
 26 27  1  0
 27 28  2  0
 27 29  1  0
 29 30  1  0
 30 31  1  0
 31 32  1  0
 32 33  2  0
 33 34  1  0
 34 35  2  0
 35 36  1  0
 36 37  2  0
 30 38  1  0
 38 39  2  0
 38 40  1  0
 40 41  1  0
 41 42  1  0
 42 43  1  0
 43 44  2  0
 44 45  1  0
 45 46  2  0
 46 47  1  0
 47 48  2  0
 41 49  1  0
 49 50  2  0
 49 51  1  0
 51 52  1  0
 52 53  1  0
 53 54  1  0
 54 55  2  0
 55 56  1  0
 56 57  2  0
 57 58  1  0
 58 59  2  0
 52 60  1  0
 60 61  2  0
 60 62  1  0
 10  4  1  0
 19 14  1  0
 25 20  1  0
 37 32  1  0
 48 43  1  0
 59 54  1  0
 11  6  1  0
 26 22  1  0
M  END
>  <Title>  (146) 
idAAMDgen6

$$$$

     RDKit          2D

 22 24  0  0  0  0  0  0  0  0999 V2000
    2.6491    0.9642    0.0000 C   0  0  0  0  0  0  0  0  0  0  0  0
    1.5000    0.0000    0.0000 C   0  0  0  0  0  0  0  0  0  0  0  0
    2.6491   -0.9642    0.0000 C   0  0  0  0  0  0  0  0  0  0  0  0
    0.7500   -1.2990    0.0000 C   0  0  0  0  0  0  0  0  0  0  0  0
   -0.7500   -1.2990    0.0000 C   0  0  0  0  0  0  0  0  0  0  0  0
   -1.5000    0.0000    0.0000 C   0  0  0  0  0  0  0  0  0  0  0  0
   -0.7500    1.2990    0.0000 C   0  0  0  0  0  0  0  0  0  0  0  0
   -2.2500    1.2990    0.0000 C   0  0  0  0  0  0  0  0  0  0  0  0
   -1.5000    2.5981    0.0000 C   0  0  0  0  0  0  0  0  0  0  0  0
   -3.0000    2.5981    0.0000 C   0  0  0  0  0  0  0  0  0  0  0  0
   -3.7500    3.8971    0.0000 C   0  0  0  0  0  0  0  0  0  0  0  0
   -5.2500    3.8971    0.0000 C   0  0  0  0  0  0  0  0  0  0  0  0
   -6.0000    5.1962    0.0000 C   0  0  0  0  0  0  0  0  0  0  0  0
   -7.5000    5.1962    0.0000 C   0  0  0  0  0  0  0  0  0  0  0  0
   -8.2500    3.8971    0.0000 C   0  0  0  0  0  0  0  0  0  0  0  0
   -9.7500    3.8971    0.0000 O   0  0  0  0  0  0  0  0  0  0  0  0
   -7.5000    2.5981    0.0000 C   0  0  0  0  0  0  0  0  0  0  0  0
   -6.0000    2.5981    0.0000 C   0  0  0  0  0  0  0  0  0  0  0  0
   -0.7500    3.8971    0.0000 C   0  0  0  0  0  0  0  0  0  0  0  0
    0.7500    3.8971    0.0000 C   0  0  0  0  0  0  0  0  0  0  0  0
    1.5000    2.5981    0.0000 C   0  0  0  0  0  0  0  0  0  0  0  0
    0.7500    1.2990    0.0000 C   0  0  0  0  0  0  0  0  0  0  0  0
  1  2  1  0
  2  3  1  0
  2  4  1  0
  4  5  1  0
  5  6  1  0
  6  7  1  0
  7  8  1  0
  7  9  1  0
  9 10  1  0
 10 11  1  0
 11 12  1  0
 12 13  1  0
 13 14  1  0
 14 15  1  0
 15 16  1  0
 15 17  1  0
 17 18  1  0
  9 19  1  0
 19 20  1  0
 20 21  1  0
 21 22  1  0
 22  2  1  0
 22  7  1  0
 18 12  1  0
M  END
>  <Title>  (147) 
idAAMEgen6

$$$$

     RDKit          2D

 29 33  0  0  0  0  0  0  0  0999 V2000
   -0.7500   -3.8971    0.0000 O   0  0  0  0  0  0  0  0  0  0  0  0
    0.7500   -3.8971    0.0000 C   0  0  0  0  0  0  0  0  0  0  0  0
    1.5000   -5.1962    0.0000 N   0  0  0  0  0  0  0  0  0  0  0  0
    0.7500   -6.4952    0.0000 C   0  0  0  0  0  0  0  0  0  0  0  0
    1.5000   -7.7942    0.0000 C   0  0  0  0  0  0  0  0  0  0  0  0
    2.9095   -7.2812    0.0000 C   0  0  0  0  0  0  0  0  0  0  0  0
    4.0586   -8.2454    0.0000 C   0  0  0  0  0  0  0  0  0  0  0  0
    5.4681   -7.7323    0.0000 C   0  0  0  0  0  0  0  0  0  0  0  0
    5.7286   -6.2551    0.0000 C   0  0  0  0  0  0  0  0  0  0  0  0
    4.5796   -5.2910    0.0000 C   0  0  0  0  0  0  0  0  0  0  0  0
    3.1700   -5.8040    0.0000 C   0  0  0  0  0  0  0  0  0  0  0  0
    1.7605   -9.2714    0.0000 C   0  0  0  0  0  0  0  0  0  0  0  0
    0.3509   -8.7584    0.0000 C   0  0  0  0  0  0  0  0  0  0  0  0
    1.5000   -2.5981    0.0000 N   0  0  0  0  0  0  0  0  0  0  0  0
    0.7500   -1.2990    0.0000 C   0  0  0  0  0  0  0  0  0  0  0  0
    1.5000    0.0000    0.0000 C   0  0  0  0  0  0  0  0  0  0  0  0
    0.7500    1.2990    0.0000 C   0  0  0  0  0  0  0  0  0  0  0  0
   -0.7500    1.2990    0.0000 C   0  0  0  0  0  0  0  0  0  0  0  0
   -1.5000    0.0000    0.0000 C   0  0  0  0  0  0  0  0  0  0  0  0
   -0.7500   -1.2990    0.0000 C   0  0  0  0  0  0  0  0  0  0  0  0
   -0.0000   -0.0000    0.0000 N   0  0  0  0  0  0  0  0  0  0  0  0
    0.7500   -1.2990    0.0000 C   0  0  0  0  0  0  0  0  0  0  0  0
   -0.0000   -2.5981    0.0000 C   0  0  0  0  0  0  0  0  0  0  0  0
    0.7500   -3.8971    0.0000 C   0  0  0  0  0  0  0  0  0  0  0  0
   -0.0000   -5.1962    0.0000 C   0  0  0  0  0  0  0  0  0  0  0  0
    0.7500   -6.4952    0.0000 C   0  0  0  0  0  0  0  0  0  0  0  0
    2.2500   -6.4952    0.0000 C   0  0  0  0  0  0  0  0  0  0  0  0
    3.0000   -5.1962    0.0000 C   0  0  0  0  0  0  0  0  0  0  0  0
    2.2500   -3.8971    0.0000 C   0  0  0  0  0  0  0  0  0  0  0  0
  1  2  2  0
  2  3  1  0
  3  4  1  0
  4  5  1  0
  5  6  1  0
  6  7  2  0
  7  8  1  0
  8  9  2  0
  9 10  1  0
 10 11  2  0
  5 12  1  0
 12 13  1  0
  2 14  1  0
 14 15  1  0
 15 16  1  0
 16 17  1  0
 17 18  1  0
 18 19  1  0
 19 20  1  0
 19 21  1  0
 21 22  1  0
 22 23  1  0
 23 24  1  0
 24 25  2  0
 25 26  1  0
 26 27  2  0
 27 28  1  0
 28 29  2  0
 13  5  1  0
 20 15  1  0
 29 24  1  0
 11  6  1  0
 21 17  1  0
M  END
>  <Title>  (148) 
idAAMFgen6

$$$$

     RDKit          2D

 36 41  0  0  0  0  0  0  0  0999 V2000
   -4.8434    3.3705    0.0000 C   0  0  0  0  0  0  0  0  0  0  0  0
   -3.6706    2.4352    0.0000 C   0  0  0  0  0  0  0  0  0  0  0  0
   -4.8434    1.5000    0.0000 C   0  0  0  0  0  0  0  0  0  0  0  0
   -3.0198    3.7867    0.0000 C   0  0  0  0  0  0  0  0  0  0  0  0
   -1.5574    4.1205    0.0000 C   0  0  0  0  0  0  0  0  0  0  0  0
   -0.3846    3.1852    0.0000 C   0  0  0  0  0  0  0  0  0  0  0  0
   -0.3846    1.6852    0.0000 C   0  0  0  0  0  0  0  0  0  0  0  0
    0.7881    2.6205    0.0000 C   0  0  0  0  0  0  0  0  0  0  0  0
    1.0777    1.3515    0.0000 C   0  0  0  0  0  0  0  0  0  0  0  0
    2.0130    2.5242    0.0000 C   0  0  0  0  0  0  0  0  0  0  0  0
    3.4962    2.3006    0.0000 C   0  0  0  0  0  0  0  0  0  0  0  0
    4.4315    3.4734    0.0000 C   0  0  0  0  0  0  0  0  0  0  0  0
    5.9147    3.2498    0.0000 C   0  0  0  0  0  0  0  0  0  0  0  0
    6.8499    4.4226    0.0000 C   0  0  0  0  0  0  0  0  0  0  0  0
    6.3019    5.8189    0.0000 C   0  0  0  0  0  0  0  0  0  0  0  0
    4.8187    6.0424    0.0000 C   0  0  0  0  0  0  0  0  0  0  0  0
    3.8835    4.8697    0.0000 C   0  0  0  0  0  0  0  0  0  0  0  0
    1.7286    0.0000    0.0000 C   0  0  0  0  0  0  0  0  0  0  0  0
    1.0777   -1.3515    0.0000 C   0  0  0  0  0  0  0  0  0  0  0  0
   -0.3846   -1.6852    0.0000 C   0  0  0  0  0  0  0  0  0  0  0  0
   -1.5574   -0.7500    0.0000 C   0  0  0  0  0  0  0  0  0  0  0  0
   -1.5574    0.7500    0.0000 C   0  0  0  0  0  0  0  0  0  0  0  0
   -2.7301   -0.1852    0.0000 C   0  0  0  0  0  0  0  0  0  0  0  0
   -3.0198    1.0838    0.0000 C   0  0  0  0  0  0  0  0  0  0  0  0
   -3.9550   -0.0890    0.0000 C   0  0  0  0  0  0  0  0  0  0  0  0
   -5.4383    0.1346    0.0000 C   0  0  0  0  0  0  0  0  0  0  0  0
   -6.3735   -1.0381    0.0000 C   0  0  0  0  0  0  0  0  0  0  0  0
   -7.8567   -0.8146    0.0000 C   0  0  0  0  0  0  0  0  0  0  0  0
   -8.7920   -1.9873    0.0000 C   0  0  0  0  0  0  0  0  0  0  0  0
   -8.2440   -3.3836    0.0000 C   0  0  0  0  0  0  0  0  0  0  0  0
   -6.7607   -3.6072    0.0000 C   0  0  0  0  0  0  0  0  0  0  0  0
   -7.2320   -0.3535    0.0000 C   0  0  0  0  0  0  0  0  0  0  0  0
   -8.4048    0.5817    0.0000 C   0  0  0  0  0  0  0  0  0  0  0  0
   -9.3400   -0.5910    0.0000 C   0  0  0  0  0  0  0  0  0  0  0  0
   -6.9215    0.3582    0.0000 C   0  0  0  0  0  0  0  0  0  0  0  0
   -5.8255   -2.4345    0.0000 C   0  0  0  0  0  0  0  0  0  0  0  0
  1  2  1  0
  2  3  1  0
  2  4  1  0
  4  5  1  0
  5  6  1  0
  6  7  1  0
  7  8  1  0
  7  9  1  0
  9 10  1  0
 10 11  1  0
 11 12  1  0
 12 13  1  0
 13 14  1  0
 14 15  1  0
 15 16  1  0
 16 17  1  0
  9 18  1  0
 18 19  1  0
 19 20  1  0
 20 21  1  0
 21 22  1  0
 22 23  1  0
 22 24  1  0
 24 25  1  0
 25 26  1  0
 26 27  1  0
 27 28  1  0
 28 29  1  0
 29 30  1  0
 30 31  1  0
 31 32  1  0
 32 33  1  0
 33 34  1  0
 33 35  1  0
 31 36  1  0
 24  2  1  0
 35 27  1  0
 22  7  1  0
 36 27  1  0
 17 12  1  0
 34 29  1  0
M  END
>  <Title>  (149) 
idAAMGgen6

$$$$

     RDKit          2D

 76 82  0  0  0  0  0  0  0  0999 V2000
    4.7727   -0.8952    0.0000 C   0  0  0  0  0  0  0  0  0  0  0  0
    3.5517   -1.4712    0.0000 C   0  0  0  0  0  0  0  0  0  0  0  0
    4.3851   -2.7184    0.0000 C   0  0  0  0  0  0  0  0  0  0  0  0
    5.8819   -2.6203    0.0000 C   0  0  0  0  0  0  0  0  0  0  0  0
    6.7152   -3.8675    0.0000 C   0  0  0  0  0  0  0  0  0  0  0  0
    8.2120   -3.7694    0.0000 C   0  0  0  0  0  0  0  0  0  0  0  0
    8.8755   -2.4241    0.0000 O   0  0  0  0  0  0  0  0  0  0  0  0
    9.0454   -5.0166    0.0000 C   0  0  0  0  0  0  0  0  0  0  0  0
    7.7179   -5.7150    0.0000 O   0  0  0  0  0  0  0  0  0  0  0  0
    9.6012   -6.4098    0.0000 C   0  0  0  0  0  0  0  0  0  0  0  0
   11.0980   -6.3117    0.0000 C   0  0  0  0  0  0  0  0  0  0  0  0
   11.4672   -4.8578    0.0000 C   0  0  0  0  0  0  0  0  0  0  0  0
   10.1986   -4.0574    0.0000 C   0  0  0  0  0  0  0  0  0  0  0  0
    6.5453   -1.2750    0.0000 C   0  0  0  0  0  0  0  0  0  0  0  0
    5.5460   -0.3673    0.0000 O   0  0  0  0  0  0  0  0  0  0  0  0
    8.0421   -1.1769    0.0000 C   0  0  0  0  0  0  0  0  0  0  0  0
    8.3603    0.2890    0.0000 O   0  0  0  0  0  0  0  0  0  0  0  0
    3.8444    0.0000    0.0000 C   0  0  0  0  0  0  0  0  0  0  0  0
    3.5517    1.4712    0.0000 C   0  0  0  0  0  0  0  0  0  0  0  0
    2.7184    2.7184    0.0000 C   0  0  0  0  0  0  0  0  0  0  0  0
    1.4712    3.5517    0.0000 C   0  0  0  0  0  0  0  0  0  0  0  0
    0.0000    3.8444    0.0000 C   0  0  0  0  0  0  0  0  0  0  0  0
   -1.4712    3.5517    0.0000 C   0  0  0  0  0  0  0  0  0  0  0  0
   -2.7184    2.7184    0.0000 C   0  0  0  0  0  0  0  0  0  0  0  0
   -3.5517    1.4712    0.0000 C   0  0  0  0  0  0  0  0  0  0  0  0
   -3.8444    0.0000    0.0000 C   0  0  0  0  0  0  0  0  0  0  0  0
   -3.5517   -1.4712    0.0000 C   0  0  0  0  0  0  0  0  0  0  0  0
   -2.7184   -2.7184    0.0000 C   0  0  0  0  0  0  0  0  0  0  0  0
   -1.4712   -3.5517    0.0000 C   0  0  0  0  0  0  0  0  0  0  0  0
   -0.0000   -3.8444    0.0000 C   0  0  0  0  0  0  0  0  0  0  0  0
    1.4712   -3.5517    0.0000 C   0  0  0  0  0  0  0  0  0  0  0  0
    2.7184   -2.7184    0.0000 C   0  0  0  0  0  0  0  0  0  0  0  0
    3.7790   -3.7790    0.0000 C   0  0  0  0  0  0  0  0  0  0  0  0
    3.3908   -5.2279    0.0000 C   0  0  0  0  0  0  0  0  0  0  0  0
    1.9419   -5.6162    0.0000 C   0  0  0  0  0  0  0  0  0  0  0  0
    1.5537   -7.0650    0.0000 C   0  0  0  0  0  0  0  0  0  0  0  0
    2.6144   -8.1257    0.0000 C   0  0  0  0  0  0  0  0  0  0  0  0
    4.0632   -7.7375    0.0000 C   0  0  0  0  0  0  0  0  0  0  0  0
    4.4515   -6.2886    0.0000 C   0  0  0  0  0  0  0  0  0  0  0  0
    3.0026   -6.6768    0.0000 C   0  0  0  0  0  0  0  0  0  0  0  0
    3.3908   -5.2279    0.0000 C   0  0  0  0  0  0  0  0  0  0  0  0
    2.3302   -4.1673    0.0000 O   0  0  0  0  0  0  0  0  0  0  0  0
    4.8397   -4.8397    0.0000 N   0  0  0  0  0  0  0  0  0  0  0  0
    5.2279   -3.3908    0.0000 C   0  0  0  0  0  0  0  0  0  0  0  0
    6.6768   -3.0026    0.0000 C   0  0  0  0  0  0  0  0  0  0  0  0
    7.0650   -1.5537    0.0000 C   0  0  0  0  0  0  0  0  0  0  0  0
    8.5139   -1.1655    0.0000 C   0  0  0  0  0  0  0  0  0  0  0  0
    8.9022    0.2834    0.0000 C   0  0  0  0  0  0  0  0  0  0  0  0
    7.8415    1.3441    0.0000 C   0  0  0  0  0  0  0  0  0  0  0  0
    6.3926    0.9559    0.0000 C   0  0  0  0  0  0  0  0  0  0  0  0
    6.0044   -0.4930    0.0000 C   0  0  0  0  0  0  0  0  0  0  0  0
    4.1673   -2.3302    0.0000 C   0  0  0  0  0  0  0  0  0  0  0  0
    2.6675   -2.3563    0.0000 O   0  0  0  0  0  0  0  0  0  0  0  0
    4.5555   -0.8813    0.0000 N   0  0  0  0  0  0  0  0  0  0  0  0
    3.4948    0.1794    0.0000 C   0  0  0  0  0  0  0  0  0  0  0  0
    3.8831    1.6283    0.0000 C   0  0  0  0  0  0  0  0  0  0  0  0
    2.8224    2.6889    0.0000 C   0  0  0  0  0  0  0  0  0  0  0  0
    3.2106    4.1378    0.0000 C   0  0  0  0  0  0  0  0  0  0  0  0
    2.1500    5.1985    0.0000 C   0  0  0  0  0  0  0  0  0  0  0  0
    0.7011    4.8103    0.0000 C   0  0  0  0  0  0  0  0  0  0  0  0
    0.3129    3.3614    0.0000 C   0  0  0  0  0  0  0  0  0  0  0  0
    1.3735    2.3007    0.0000 C   0  0  0  0  0  0  0  0  0  0  0  0
    2.0460   -0.2088    0.0000 C   0  0  0  0  0  0  0  0  0  0  0  0
    1.6577   -1.6577    0.0000 O   0  0  0  0  0  0  0  0  0  0  0  0
    0.9853    0.8518    0.0000 N   0  0  0  0  0  0  0  0  0  0  0  0
   -0.4636    0.4636    0.0000 C   0  0  0  0  0  0  0  0  0  0  0  0
   -1.5243    1.5243    0.0000 C   0  0  0  0  0  0  0  0  0  0  0  0
   -2.9731    1.1360    0.0000 C   0  0  0  0  0  0  0  0  0  0  0  0
   -4.0338    2.1967    0.0000 C   0  0  0  0  0  0  0  0  0  0  0  0
   -5.4827    1.8085    0.0000 C   0  0  0  0  0  0  0  0  0  0  0  0
   -5.8709    0.3596    0.0000 C   0  0  0  0  0  0  0  0  0  0  0  0
   -4.8103   -0.7011    0.0000 C   0  0  0  0  0  0  0  0  0  0  0  0
   -3.3614   -0.3129    0.0000 C   0  0  0  0  0  0  0  0  0  0  0  0
   -0.8518   -0.9853    0.0000 C   0  0  0  0  0  0  0  0  0  0  0  0
   -2.3007   -1.3735    0.0000 O   0  0  0  0  0  0  0  0  0  0  0  0
    0.2088   -2.0460    0.0000 O   0  0  0  0  0  0  0  0  0  0  0  0
  1  2  1  0
  2  3  1  0
  3  4  1  0
  4  5  1  0
  5  6  1  0
  6  7  1  0
  6  8  1  0
  8  9  1  0
  8 10  1  0
 10 11  1  0
 11 12  1  0
 12 13  1  0
  4 14  1  0
 14 15  1  0
 14 16  1  0
 16 17  1  0
  2 18  1  0
 18 19  1  0
 19 20  1  0
 20 21  1  0
 21 22  1  0
 22 23  1  0
 23 24  1  0
 24 25  1  0
 25 26  1  0
 26 27  1  0
 27 28  1  0
 28 29  1  0
 29 30  1  0
 30 31  1  0
 31 32  1  0
 32 33  1  0
 33 34  1  0
 34 35  1  0
 35 36  1  0
 36 37  1  0
 37 38  1  0
 38 39  1  0
 38 40  1  0
 40 41  1  0
 41 42  2  0
 41 43  1  0
 43 44  1  0
 44 45  1  0
 45 46  1  0
 46 47  2  0
 47 48  1  0
 48 49  2  0
 49 50  1  0
 50 51  2  0
 44 52  1  0
 52 53  2  0
 52 54  1  0
 54 55  1  0
 55 56  1  0
 56 57  1  0
 57 58  2  0
 58 59  1  0
 59 60  2  0
 60 61  1  0
 61 62  2  0
 55 63  1  0
 63 64  2  0
 63 65  1  0
 65 66  1  0
 66 67  1  0
 67 68  1  0
 68 69  2  0
 69 70  1  0
 70 71  2  0
 71 72  1  0
 72 73  2  0
 66 74  1  0
 74 75  2  0
 74 76  1  0
 32  2  1  0
 39 34  1  0
 51 46  1  0
 62 57  1  0
 73 68  1  0
 13  8  1  0
 40 36  1  0
M  END
>  <Title>  (150) 
idAAMHgen6

$$$$

     RDKit          2D

 32 36  0  0  0  0  0  0  0  0999 V2000
    5.4786    1.2990    0.0000 C   0  0  0  0  0  0  0  0  0  0  0  0
    3.9786    1.2990    0.0000 C   0  0  0  0  0  0  0  0  0  0  0  0
    3.2286    2.5981    0.0000 C   0  0  0  0  0  0  0  0  0  0  0  0
    3.2286   -0.0000    0.0000 C   0  0  0  0  0  0  0  0  0  0  0  0
    1.7286    0.0000    0.0000 C   0  0  0  0  0  0  0  0  0  0  0  0
    1.0777    1.3515    0.0000 C   0  0  0  0  0  0  0  0  0  0  0  0
   -0.3846    1.6852    0.0000 C   0  0  0  0  0  0  0  0  0  0  0  0
   -1.5574    0.7500    0.0000 C   0  0  0  0  0  0  0  0  0  0  0  0
   -1.5574   -0.7500    0.0000 C   0  0  0  0  0  0  0  0  0  0  0  0
   -0.3846   -1.6852    0.0000 C   0  0  0  0  0  0  0  0  0  0  0  0
   -1.8470   -2.0190    0.0000 C   0  0  0  0  0  0  0  0  0  0  0  0
   -1.0355   -3.0367    0.0000 C   0  0  0  0  0  0  0  0  0  0  0  0
   -2.5355   -3.0367    0.0000 C   0  0  0  0  0  0  0  0  0  0  0  0
   -3.2855   -4.3357    0.0000 C   0  0  0  0  0  0  0  0  0  0  0  0
   -4.7855   -4.3357    0.0000 C   0  0  0  0  0  0  0  0  0  0  0  0
   -5.5355   -5.6348    0.0000 C   0  0  0  0  0  0  0  0  0  0  0  0
   -7.0355   -5.6348    0.0000 C   0  0  0  0  0  0  0  0  0  0  0  0
   -7.7855   -4.3357    0.0000 C   0  0  0  0  0  0  0  0  0  0  0  0
   -7.0355   -3.0367    0.0000 C   0  0  0  0  0  0  0  0  0  0  0  0
   -4.7855   -5.4338    0.0000 C   0  0  0  0  0  0  0  0  0  0  0  0
   -4.7855   -6.9338    0.0000 C   0  0  0  0  0  0  0  0  0  0  0  0
   -6.2855   -6.9338    0.0000 C   0  0  0  0  0  0  0  0  0  0  0  0
   -4.0355   -5.6348    0.0000 C   0  0  0  0  0  0  0  0  0  0  0  0
   -5.5355   -3.0367    0.0000 C   0  0  0  0  0  0  0  0  0  0  0  0
   -0.3846   -4.3881    0.0000 C   0  0  0  0  0  0  0  0  0  0  0  0
   -1.8470   -4.7219    0.0000 C   0  0  0  0  0  0  0  0  0  0  0  0
   -0.3846   -5.8881    0.0000 C   0  0  0  0  0  0  0  0  0  0  0  0
    1.0777   -4.7219    0.0000 C   0  0  0  0  0  0  0  0  0  0  0  0
    2.2505   -3.7867    0.0000 C   0  0  0  0  0  0  0  0  0  0  0  0
    2.2505   -2.2867    0.0000 C   0  0  0  0  0  0  0  0  0  0  0  0
    1.0777   -1.3515    0.0000 C   0  0  0  0  0  0  0  0  0  0  0  0
    2.5401   -1.0177    0.0000 C   0  0  0  0  0  0  0  0  0  0  0  0
  1  2  1  0
  2  3  1  0
  2  4  1  0
  4  5  1  0
  5  6  1  0
  6  7  1  0
  7  8  1  0
  8  9  1  0
  9 10  1  0
 10 11  1  0
 10 12  1  0
 12 13  1  0
 13 14  1  0
 14 15  1  0
 15 16  1  0
 16 17  1  0
 17 18  1  0
 18 19  1  0
 19 20  1  0
 20 21  1  0
 21 22  1  0
 21 23  1  0
 19 24  1  0
 12 25  1  0
 25 26  1  0
 25 27  1  0
 25 28  1  0
 28 29  1  0
 29 30  1  0
 30 31  1  0
 31 32  1  0
 31  5  1  0
 31 10  1  0
 23 15  1  0
 24 15  1  0
 22 17  1  0
M  END
>  <Title>  (151) 
idAAMIgen6

$$$$

     RDKit          2D

 56 62  0  0  0  0  0  0  0  0999 V2000
    3.0000   -2.5981    0.0000 O   0  0  0  0  0  0  0  0  0  0  0  0
    1.5000   -2.5981    0.0000 C   0  0  0  0  0  0  0  0  0  0  0  0
    0.7500   -3.8971    0.0000 N   0  0  0  0  0  0  0  0  0  0  0  0
    1.5000   -5.1962    0.0000 C   0  0  0  0  0  0  0  0  0  0  0  0
    0.7500   -6.4952    0.0000 C   0  0  0  0  0  0  0  0  0  0  0  0
    1.5000   -7.7942    0.0000 C   0  0  0  0  0  0  0  0  0  0  0  0
    0.7500   -9.0933    0.0000 C   0  0  0  0  0  0  0  0  0  0  0  0
    1.5000  -10.3923    0.0000 C   0  0  0  0  0  0  0  0  0  0  0  0
    3.0000  -10.3923    0.0000 C   0  0  0  0  0  0  0  0  0  0  0  0
    3.7500   -9.0933    0.0000 C   0  0  0  0  0  0  0  0  0  0  0  0
    3.0000   -7.7942    0.0000 C   0  0  0  0  0  0  0  0  0  0  0  0
    3.0000   -5.1962    0.0000 C   0  0  0  0  0  0  0  0  0  0  0  0
    3.7500   -3.8971    0.0000 O   0  0  0  0  0  0  0  0  0  0  0  0
    3.7500   -6.4952    0.0000 N   0  0  0  0  0  0  0  0  0  0  0  0
    5.2500   -6.4952    0.0000 C   0  0  0  0  0  0  0  0  0  0  0  0
    6.0000   -7.7942    0.0000 C   0  0  0  0  0  0  0  0  0  0  0  0
    7.5000   -7.7942    0.0000 C   0  0  0  0  0  0  0  0  0  0  0  0
    8.2500   -9.0933    0.0000 C   0  0  0  0  0  0  0  0  0  0  0  0
    9.7500   -9.0933    0.0000 C   0  0  0  0  0  0  0  0  0  0  0  0
   10.5000   -7.7942    0.0000 C   0  0  0  0  0  0  0  0  0  0  0  0
    9.7500   -6.4952    0.0000 C   0  0  0  0  0  0  0  0  0  0  0  0
    8.2500   -6.4952    0.0000 C   0  0  0  0  0  0  0  0  0  0  0  0
    6.0000   -5.1962    0.0000 C   0  0  0  0  0  0  0  0  0  0  0  0
    5.2500   -3.8971    0.0000 O   0  0  0  0  0  0  0  0  0  0  0  0
    7.5000   -5.1962    0.0000 O   0  0  0  0  0  0  0  0  0  0  0  0
    0.7500   -1.2990    0.0000 C   0  0  0  0  0  0  0  0  0  0  0  0
    1.5000    0.0000    0.0000 C   0  0  0  0  0  0  0  0  0  0  0  0
    0.7500    1.2990    0.0000 C   0  0  0  0  0  0  0  0  0  0  0  0
   -0.7500    1.2990    0.0000 C   0  0  0  0  0  0  0  0  0  0  0  0
   -1.5000    0.0000    0.0000 C   0  0  0  0  0  0  0  0  0  0  0  0
   -0.7500   -1.2990    0.0000 C   0  0  0  0  0  0  0  0  0  0  0  0
   -0.0000   -0.0000    0.0000 C   0  0  0  0  0  0  0  0  0  0  0  0
    0.7500   -1.2990    0.0000 C   0  0  0  0  0  0  0  0  0  0  0  0
    2.2500   -1.2990    0.0000 O   0  0  0  0  0  0  0  0  0  0  0  0
   -0.0000   -2.5981    0.0000 N   0  0  0  0  0  0  0  0  0  0  0  0
    0.7500   -3.8971    0.0000 C   0  0  0  0  0  0  0  0  0  0  0  0
   -0.0000   -5.1962    0.0000 C   0  0  0  0  0  0  0  0  0  0  0  0
    0.7500   -6.4952    0.0000 C   0  0  0  0  0  0  0  0  0  0  0  0
    2.2500   -6.4952    0.0000 C   0  0  0  0  0  0  0  0  0  0  0  0
    3.0000   -5.1962    0.0000 C   0  0  0  0  0  0  0  0  0  0  0  0
    2.2500   -3.8971    0.0000 C   0  0  0  0  0  0  0  0  0  0  0  0
    1.5000   -5.1962    0.0000 C   0  0  0  0  0  0  0  0  0  0  0  0
    0.7500   -3.8971    0.0000 C   0  0  0  0  0  0  0  0  0  0  0  0
    1.7920   -2.8182    0.0000 O   0  0  0  0  0  0  0  0  0  0  0  0
   -0.7500   -3.8971    0.0000 N   0  0  0  0  0  0  0  0  0  0  0  0
   -1.5000   -2.5981    0.0000 C   0  0  0  0  0  0  0  0  0  0  0  0
   -3.0000   -2.5981    0.0000 C   0  0  0  0  0  0  0  0  0  0  0  0
   -3.7500   -1.2990    0.0000 C   0  0  0  0  0  0  0  0  0  0  0  0
   -3.0000    0.0000    0.0000 C   0  0  0  0  0  0  0  0  0  0  0  0
   -3.7500    1.2990    0.0000 C   0  0  0  0  0  0  0  0  0  0  0  0
   -5.2500    1.2990    0.0000 C   0  0  0  0  0  0  0  0  0  0  0  0
   -6.0000    0.0000    0.0000 C   0  0  0  0  0  0  0  0  0  0  0  0
   -5.2500   -1.2990    0.0000 C   0  0  0  0  0  0  0  0  0  0  0  0
   -0.7500   -1.2990    0.0000 C   0  0  0  0  0  0  0  0  0  0  0  0
    0.7500   -1.2990    0.0000 O   0  0  0  0  0  0  0  0  0  0  0  0
   -1.7920   -0.2201    0.0000 O   0  0  0  0  0  0  0  0  0  0  0  0
  1  2  2  0
  2  3  1  0
  3  4  1  0
  4  5  1  0
  5  6  1  0
  6  7  2  0
  7  8  1  0
  8  9  2  0
  9 10  1  0
 10 11  2  0
  4 12  1  0
 12 13  2  0
 12 14  1  0
 14 15  1  0
 15 16  1  0
 16 17  1  0
 17 18  2  0
 18 19  1  0
 19 20  2  0
 20 21  1  0
 21 22  2  0
 15 23  1  0
 23 24  2  0
 23 25  1  0
  2 26  1  0
 26 27  1  0
 27 28  1  0
 28 29  1  0
 29 30  1  0
 30 31  1  0
 30 32  1  0
 32 33  1  0
 33 34  2  0
 33 35  1  0
 35 36  1  0
 36 37  1  0
 37 38  1  0
 38 39  1  0
 39 40  1  0
 40 41  1  0
 40 42  1  0
 42 43  1  0
 43 44  2  0
 43 45  1  0
 45 46  1  0
 46 47  1  0
 47 48  1  0
 48 49  2  0
 49 50  1  0
 50 51  2  0
 51 52  1  0
 52 53  2  0
 46 54  1  0
 54 55  2  0
 54 56  1  0
 11  6  1  0
 22 17  1  0
 31 26  1  0
 41 36  1  0
 53 48  1  0
 32 28  1  0
 42 38  1  0
M  END
>  <Title>  (152) 
idAAMJgen6

$$$$

     RDKit          2D

 35 38  0  0  0  0  0  0  0  0999 V2000
    4.1948    2.7141    0.0000 C   0  0  0  0  0  0  0  0  0  0  0  0
    4.5237    4.1777    0.0000 N   0  0  0  0  0  0  0  0  0  0  0  0
    5.9555    4.6246    0.0000 C   0  0  0  0  0  0  0  0  0  0  0  0
    3.6994    5.4309    0.0000 C   0  0  0  0  0  0  0  0  0  0  0  0
    2.2020    5.3437    0.0000 C   0  0  0  0  0  0  0  0  0  0  0  0
    1.3777    6.5969    0.0000 C   0  0  0  0  0  0  0  0  0  0  0  0
    2.0509    7.9373    0.0000 C   0  0  0  0  0  0  0  0  0  0  0  0
    3.5484    8.0246    0.0000 C   0  0  0  0  0  0  0  0  0  0  0  0
    4.3726    6.7713    0.0000 C   0  0  0  0  0  0  0  0  0  0  0  0
    2.8752    6.6841    0.0000 C   0  0  0  0  0  0  0  0  0  0  0  0
    3.6994    5.4309    0.0000 C   0  0  0  0  0  0  0  0  0  0  0  0
    5.1313    5.8779    0.0000 O   0  0  0  0  0  0  0  0  0  0  0  0
    3.0262    4.0904    0.0000 N   0  0  0  0  0  0  0  0  0  0  0  0
    3.8505    2.8372    0.0000 C   0  0  0  0  0  0  0  0  0  0  0  0
    5.3479    2.9244    0.0000 C   0  0  0  0  0  0  0  0  0  0  0  0
    6.0211    4.2649    0.0000 C   0  0  0  0  0  0  0  0  0  0  0  0
    7.5186    4.3521    0.0000 C   0  0  0  0  0  0  0  0  0  0  0  0
    8.1918    5.6925    0.0000 C   0  0  0  0  0  0  0  0  0  0  0  0
    7.3675    6.9458    0.0000 C   0  0  0  0  0  0  0  0  0  0  0  0
    5.8701    6.8586    0.0000 C   0  0  0  0  0  0  0  0  0  0  0  0
    5.1969    5.5181    0.0000 C   0  0  0  0  0  0  0  0  0  0  0  0
    3.1773    1.4968    0.0000 C   0  0  0  0  0  0  0  0  0  0  0  0
    4.0015    0.2435    0.0000 O   0  0  0  0  0  0  0  0  0  0  0  0
    1.6798    1.4095    0.0000 C   0  0  0  0  0  0  0  0  0  0  0  0
    2.0257    2.8691    0.0000 C   0  0  0  0  0  0  0  0  0  0  0  0
    2.1929    0.0000    0.0000 C   0  0  0  0  0  0  0  0  0  0  0  0
    1.6798   -1.4095    0.0000 C   0  0  0  0  0  0  0  0  0  0  0  0
    0.3808   -2.1595    0.0000 C   0  0  0  0  0  0  0  0  0  0  0  0
   -1.0964   -1.8991    0.0000 C   0  0  0  0  0  0  0  0  0  0  0  0
   -2.0606   -0.7500    0.0000 C   0  0  0  0  0  0  0  0  0  0  0  0
   -3.4701   -1.2630    0.0000 O   0  0  0  0  0  0  0  0  0  0  0  0
   -2.0606    0.7500    0.0000 C   0  0  0  0  0  0  0  0  0  0  0  0
   -1.0964    1.8991    0.0000 C   0  0  0  0  0  0  0  0  0  0  0  0
   -1.8464    3.1981    0.0000 O   0  0  0  0  0  0  0  0  0  0  0  0
    0.3808    2.1595    0.0000 C   0  0  0  0  0  0  0  0  0  0  0  0
  1  2  1  0
  2  3  1  0
  2  4  1  0
  4  5  1  0
  5  6  1  0
  6  7  1  0
  7  8  1  0
  8  9  1  0
  8 10  1  0
 10 11  1  0
 11 12  2  0
 11 13  1  0
 13 14  1  0
 14 15  1  0
 15 16  1  0
 16 17  2  0
 17 18  1  0
 18 19  2  0
 19 20  1  0
 20 21  2  0
 14 22  1  0
 22 23  1  0
 22 24  1  0
 24 25  1  0
 24 26  1  0
 26 27  1  0
 27 28  1  0
 28 29  1  0
 29 30  1  0
 30 31  1  0
 30 32  1  0
 32 33  1  0
 33 34  1  0
 33 35  1  0
  9  4  1  0
 21 16  1  0
 35 24  1  0
 10  6  1  0
M  END
>  <Title>  (153) 
idAAMKgen6

$$$$

     RDKit          2D

 29 33  0  0  0  0  0  0  0  0999 V2000
    5.1102   -5.2419    0.0000 C   0  0  0  0  0  0  0  0  0  0  0  0
    3.9955   -4.2382    0.0000 C   0  0  0  0  0  0  0  0  0  0  0  0
    2.8808   -3.2345    0.0000 C   0  0  0  0  0  0  0  0  0  0  0  0
    4.9992   -3.1235    0.0000 C   0  0  0  0  0  0  0  0  0  0  0  0
    2.9918   -5.3529    0.0000 C   0  0  0  0  0  0  0  0  0  0  0  0
    3.3037   -6.8202    0.0000 C   0  0  0  0  0  0  0  0  0  0  0  0
    2.0046   -7.5702    0.0000 C   0  0  0  0  0  0  0  0  0  0  0  0
    3.1193   -8.5739    0.0000 C   0  0  0  0  0  0  0  0  0  0  0  0
    2.1156   -9.6886    0.0000 C   0  0  0  0  0  0  0  0  0  0  0  0
    4.1230   -7.4591    0.0000 C   0  0  0  0  0  0  0  0  0  0  0  0
    4.2340   -9.5776    0.0000 C   0  0  0  0  0  0  0  0  0  0  0  0
    1.3945   -8.9405    0.0000 C   0  0  0  0  0  0  0  0  0  0  0  0
   -0.0973   -8.7837    0.0000 C   0  0  0  0  0  0  0  0  0  0  0  0
   -0.4091   -7.3165    0.0000 C   0  0  0  0  0  0  0  0  0  0  0  0
    0.8899   -6.5665    0.0000 C   0  0  0  0  0  0  0  0  0  0  0  0
   -0.2248   -5.5628    0.0000 C   0  0  0  0  0  0  0  0  0  0  0  0
    1.5000   -5.1962    0.0000 C   0  0  0  0  0  0  0  0  0  0  0  0
    0.7500   -3.8971    0.0000 C   0  0  0  0  0  0  0  0  0  0  0  0
    1.5000   -2.5981    0.0000 C   0  0  0  0  0  0  0  0  0  0  0  0
    0.7500   -1.2990    0.0000 C   0  0  0  0  0  0  0  0  0  0  0  0
    1.5000    0.0000    0.0000 C   0  0  0  0  0  0  0  0  0  0  0  0
    0.7500    1.2990    0.0000 C   0  0  0  0  0  0  0  0  0  0  0  0
   -0.7500    1.2990    0.0000 C   0  0  0  0  0  0  0  0  0  0  0  0
   -1.5000    0.0000    0.0000 C   0  0  0  0  0  0  0  0  0  0  0  0
    1.7010   -0.7500    0.0000 C   0  0  0  0  0  0  0  0  0  0  0  0
    3.0000   -0.0000    0.0000 C   0  0  0  0  0  0  0  0  0  0  0  0
    2.2500    1.2990    0.0000 C   0  0  0  0  0  0  0  0  0  0  0  0
    2.2500   -1.2990    0.0000 C   0  0  0  0  0  0  0  0  0  0  0  0
   -0.7500   -1.2990    0.0000 C   0  0  0  0  0  0  0  0  0  0  0  0
  1  2  1  0
  2  3  1  0
  2  4  1  0
  2  5  1  0
  5  6  1  0
  6  7  1  0
  7  8  1  0
  8  9  1  0
  8 10  1  0
  8 11  1  0
  7 12  1  0
 12 13  1  0
 13 14  1  0
 14 15  1  0
 15 16  1  0
 15 17  1  0
 17 18  1  0
 18 19  1  0
 19 20  1  0
 20 21  1  0
 21 22  1  0
 22 23  1  0
 23 24  1  0
 24 25  1  0
 25 26  1  0
 26 27  1  0
 26 28  1  0
 24 29  1  0
 17  5  1  0
 28 20  1  0
 15  7  1  0
 29 20  1  0
 27 22  1  0
M  END
>  <Title>  (154) 
idAAMLgen6

$$$$

     RDKit          2D

 64 69  0  0  0  0  0  0  0  0999 V2000
    6.4598   -2.5981    0.0000 C   0  0  0  0  0  0  0  0  0  0  0  0
    5.7098   -1.2990    0.0000 C   0  0  0  0  0  0  0  0  0  0  0  0
    6.4598    0.0000    0.0000 C   0  0  0  0  0  0  0  0  0  0  0  0
    7.9598    0.0000    0.0000 O   0  0  0  0  0  0  0  0  0  0  0  0
    4.2098   -1.2990    0.0000 C   0  0  0  0  0  0  0  0  0  0  0  0
    3.1678   -2.3780    0.0000 O   0  0  0  0  0  0  0  0  0  0  0  0
    3.4598    0.0000    0.0000 C   0  0  0  0  0  0  0  0  0  0  0  0
    1.9598    0.0000    0.0000 C   0  0  0  0  0  0  0  0  0  0  0  0
    1.3858   -1.3858    0.0000 C   0  0  0  0  0  0  0  0  0  0  0  0
   -0.0000   -1.9598    0.0000 C   0  0  0  0  0  0  0  0  0  0  0  0
    0.5980   -3.3355    0.0000 C   0  0  0  0  0  0  0  0  0  0  0  0
   -0.9131   -3.1499    0.0000 C   0  0  0  0  0  0  0  0  0  0  0  0
   -2.3087   -2.6000    0.0000 O   0  0  0  0  0  0  0  0  0  0  0  0
   -0.3391   -4.5357    0.0000 C   0  0  0  0  0  0  0  0  0  0  0  0
   -1.2523   -5.7257    0.0000 O   0  0  0  0  0  0  0  0  0  0  0  0
   -0.6782   -7.1115    0.0000 C   0  0  0  0  0  0  0  0  0  0  0  0
   -1.5914   -8.3016    0.0000 C   0  0  0  0  0  0  0  0  0  0  0  0
   -1.0174   -9.6874    0.0000 C   0  0  0  0  0  0  0  0  0  0  0  0
    0.4698   -9.8832    0.0000 C   0  0  0  0  0  0  0  0  0  0  0  0
    1.3830   -8.6932    0.0000 C   0  0  0  0  0  0  0  0  0  0  0  0
    0.8089   -7.3073    0.0000 C   0  0  0  0  0  0  0  0  0  0  0  0
   -0.1042   -8.4974    0.0000 C   0  0  0  0  0  0  0  0  0  0  0  0
   -0.6782   -7.1115    0.0000 C   0  0  0  0  0  0  0  0  0  0  0  0
    0.2349   -5.9215    0.0000 O   0  0  0  0  0  0  0  0  0  0  0  0
   -2.1654   -6.9158    0.0000 N   0  0  0  0  0  0  0  0  0  0  0  0
   -2.7394   -5.5299    0.0000 C   0  0  0  0  0  0  0  0  0  0  0  0
   -4.2266   -5.3341    0.0000 C   0  0  0  0  0  0  0  0  0  0  0  0
   -4.8006   -3.9483    0.0000 C   0  0  0  0  0  0  0  0  0  0  0  0
   -3.8875   -2.7583    0.0000 C   0  0  0  0  0  0  0  0  0  0  0  0
   -4.4615   -1.3725    0.0000 C   0  0  0  0  0  0  0  0  0  0  0  0
   -5.9487   -1.1767    0.0000 C   0  0  0  0  0  0  0  0  0  0  0  0
   -6.8618   -2.3667    0.0000 C   0  0  0  0  0  0  0  0  0  0  0  0
   -6.2878   -3.7525    0.0000 C   0  0  0  0  0  0  0  0  0  0  0  0
   -1.8263   -4.3399    0.0000 C   0  0  0  0  0  0  0  0  0  0  0  0
   -0.3359   -4.1700    0.0000 O   0  0  0  0  0  0  0  0  0  0  0  0
   -2.4003   -2.9541    0.0000 N   0  0  0  0  0  0  0  0  0  0  0  0
   -1.4872   -1.7641    0.0000 C   0  0  0  0  0  0  0  0  0  0  0  0
   -2.0612   -0.3782    0.0000 C   0  0  0  0  0  0  0  0  0  0  0  0
   -1.1481    0.8118    0.0000 C   0  0  0  0  0  0  0  0  0  0  0  0
    0.3391    0.6160    0.0000 C   0  0  0  0  0  0  0  0  0  0  0  0
    1.2523    1.8060    0.0000 C   0  0  0  0  0  0  0  0  0  0  0  0
    0.6782    3.1919    0.0000 C   0  0  0  0  0  0  0  0  0  0  0  0
   -0.8089    3.3876    0.0000 C   0  0  0  0  0  0  0  0  0  0  0  0
   -1.7221    2.1976    0.0000 C   0  0  0  0  0  0  0  0  0  0  0  0
    0.0000   -1.9598    0.0000 C   0  0  0  0  0  0  0  0  0  0  0  0
    1.1740   -1.0261    0.0000 O   0  0  0  0  0  0  0  0  0  0  0  0
    0.5740   -3.3457    0.0000 N   0  0  0  0  0  0  0  0  0  0  0  0
    2.0612   -3.5415    0.0000 C   0  0  0  0  0  0  0  0  0  0  0  0
    2.6352   -4.9273    0.0000 C   0  0  0  0  0  0  0  0  0  0  0  0
    4.1224   -5.1231    0.0000 C   0  0  0  0  0  0  0  0  0  0  0  0
    4.6964   -6.5089    0.0000 C   0  0  0  0  0  0  0  0  0  0  0  0
    6.1836   -6.7047    0.0000 C   0  0  0  0  0  0  0  0  0  0  0  0
    7.0967   -5.5146    0.0000 C   0  0  0  0  0  0  0  0  0  0  0  0
    6.5227   -4.1288    0.0000 C   0  0  0  0  0  0  0  0  0  0  0  0
    5.0355   -3.9330    0.0000 C   0  0  0  0  0  0  0  0  0  0  0  0
    2.9743   -2.3514    0.0000 C   0  0  0  0  0  0  0  0  0  0  0  0
    2.4003   -0.9656    0.0000 O   0  0  0  0  0  0  0  0  0  0  0  0
    4.4615   -2.5472    0.0000 O   0  0  0  0  0  0  0  0  0  0  0  0
   -1.3858   -1.3858    0.0000 C   0  0  0  0  0  0  0  0  0  0  0  0
   -1.9598    0.0000    0.0000 C   0  0  0  0  0  0  0  0  0  0  0  0
   -1.3858    1.3858    0.0000 C   0  0  0  0  0  0  0  0  0  0  0  0
    0.0000    1.9598    0.0000 C   0  0  0  0  0  0  0  0  0  0  0  0
    1.3858    1.3858    0.0000 C   0  0  0  0  0  0  0  0  0  0  0  0
    2.4465    2.4465    0.0000 O   0  0  0  0  0  0  0  0  0  0  0  0
  1  2  1  0
  2  3  1  0
  3  4  1  0
  2  5  1  0
  5  6  1  0
  5  7  1  0
  7  8  1  0
  8  9  1  0
  9 10  1  0
 10 11  1  0
 10 12  1  0
 12 13  1  0
 12 14  1  0
 14 15  1  0
 15 16  1  0
 16 17  1  0
 17 18  1  0
 18 19  1  0
 19 20  1  0
 20 21  1  0
 20 22  1  0
 22 23  1  0
 23 24  2  0
 23 25  1  0
 25 26  1  0
 26 27  1  0
 27 28  1  0
 28 29  2  0
 29 30  1  0
 30 31  2  0
 31 32  1  0
 32 33  2  0
 26 34  1  0
 34 35  2  0
 34 36  1  0
 36 37  1  0
 37 38  1  0
 38 39  1  0
 39 40  2  0
 40 41  1  0
 41 42  2  0
 42 43  1  0
 43 44  2  0
 37 45  1  0
 45 46  2  0
 45 47  1  0
 47 48  1  0
 48 49  1  0
 49 50  1  0
 50 51  2  0
 51 52  1  0
 52 53  2  0
 53 54  1  0
 54 55  2  0
 48 56  1  0
 56 57  2  0
 56 58  1  0
 10 59  1  0
 59 60  1  0
 60 61  1  0
 61 62  1  0
 62 63  1  0
 63 64  1  0
 63  8  1  0
 21 16  1  0
 33 28  1  0
 44 39  1  0
 55 50  1  0
 22 18  1  0
M  END
>  <Title>  (155) 
idAAMMgen6

$$$$

     RDKit          2D

 46 50  0  0  0  0  0  0  0  0999 V2000
    3.2920   -4.9761    0.0000 N   0  0  0  0  0  0  0  0  0  0  0  0
    2.2500   -3.8971    0.0000 C   0  0  0  0  0  0  0  0  0  0  0  0
    3.0000   -2.5981    0.0000 O   0  0  0  0  0  0  0  0  0  0  0  0
    0.7500   -3.8971    0.0000 C   0  0  0  0  0  0  0  0  0  0  0  0
   -0.0000   -5.1962    0.0000 C   0  0  0  0  0  0  0  0  0  0  0  0
    0.7500   -6.4952    0.0000 C   0  0  0  0  0  0  0  0  0  0  0  0
   -0.0000   -7.7942    0.0000 C   0  0  0  0  0  0  0  0  0  0  0  0
    0.7500   -9.0933    0.0000 C   0  0  0  0  0  0  0  0  0  0  0  0
    2.2500   -9.0933    0.0000 C   0  0  0  0  0  0  0  0  0  0  0  0
    3.0000   -7.7942    0.0000 C   0  0  0  0  0  0  0  0  0  0  0  0
    2.2500   -6.4952    0.0000 C   0  0  0  0  0  0  0  0  0  0  0  0
   -0.0000   -2.5981    0.0000 N   0  0  0  0  0  0  0  0  0  0  0  0
    0.7500   -1.2990    0.0000 C   0  0  0  0  0  0  0  0  0  0  0  0
    2.2500   -1.2990    0.0000 O   0  0  0  0  0  0  0  0  0  0  0  0
   -0.0000    0.0000    0.0000 C   0  0  0  0  0  0  0  0  0  0  0  0
   -1.5000    0.0000    0.0000 C   0  0  0  0  0  0  0  0  0  0  0  0
   -0.7500   -1.2990    0.0000 C   0  0  0  0  0  0  0  0  0  0  0  0
    0.7500   -1.2990    0.0000 C   0  0  0  0  0  0  0  0  0  0  0  0
    1.5000   -2.5981    0.0000 N   0  0  0  0  0  0  0  0  0  0  0  0
    0.7500   -3.8971    0.0000 C   0  0  0  0  0  0  0  0  0  0  0  0
   -0.7500   -3.8971    0.0000 O   0  0  0  0  0  0  0  0  0  0  0  0
    1.5000   -5.1962    0.0000 C   0  0  0  0  0  0  0  0  0  0  0  0
    0.7500   -6.4952    0.0000 C   0  0  0  0  0  0  0  0  0  0  0  0
    1.5000   -7.7942    0.0000 C   0  0  0  0  0  0  0  0  0  0  0  0
    0.7500   -9.0933    0.0000 C   0  0  0  0  0  0  0  0  0  0  0  0
    1.5000  -10.3923    0.0000 C   0  0  0  0  0  0  0  0  0  0  0  0
    3.0000  -10.3923    0.0000 C   0  0  0  0  0  0  0  0  0  0  0  0
    3.7500   -9.0933    0.0000 C   0  0  0  0  0  0  0  0  0  0  0  0
    3.0000   -7.7942    0.0000 C   0  0  0  0  0  0  0  0  0  0  0  0
    3.0000   -5.1962    0.0000 C   0  0  0  0  0  0  0  0  0  0  0  0
    3.7500   -3.8971    0.0000 O   0  0  0  0  0  0  0  0  0  0  0  0
    3.7500   -6.4952    0.0000 N   0  0  0  0  0  0  0  0  0  0  0  0
    5.2500   -6.4952    0.0000 C   0  0  0  0  0  0  0  0  0  0  0  0
    6.0000   -7.7942    0.0000 C   0  0  0  0  0  0  0  0  0  0  0  0
    7.5000   -7.7942    0.0000 C   0  0  0  0  0  0  0  0  0  0  0  0
    8.2500   -9.0933    0.0000 C   0  0  0  0  0  0  0  0  0  0  0  0
    9.7500   -9.0933    0.0000 C   0  0  0  0  0  0  0  0  0  0  0  0
   10.5000   -7.7942    0.0000 C   0  0  0  0  0  0  0  0  0  0  0  0
    9.7500   -6.4952    0.0000 C   0  0  0  0  0  0  0  0  0  0  0  0
    8.2500   -6.4952    0.0000 C   0  0  0  0  0  0  0  0  0  0  0  0
    6.0000   -5.1962    0.0000 C   0  0  0  0  0  0  0  0  0  0  0  0
    5.2500   -3.8971    0.0000 O   0  0  0  0  0  0  0  0  0  0  0  0
    7.5000   -5.1962    0.0000 O   0  0  0  0  0  0  0  0  0  0  0  0
    1.5000    0.0000    0.0000 C   0  0  0  0  0  0  0  0  0  0  0  0
    0.7500    1.2990    0.0000 C   0  0  0  0  0  0  0  0  0  0  0  0
   -0.7500    1.2990    0.0000 C   0  0  0  0  0  0  0  0  0  0  0  0
  1  2  1  0
  2  3  2  0
  2  4  1  0
  4  5  1  0
  5  6  1  0
  6  7  2  0
  7  8  1  0
  8  9  2  0
  9 10  1  0
 10 11  2  0
  4 12  1  0
 12 13  1  0
 13 14  2  0
 13 15  1  0
 15 16  1  0
 16 17  1  0
 17 18  1  0
 18 19  1  0
 19 20  1  0
 20 21  2  0
 20 22  1  0
 22 23  1  0
 23 24  1  0
 24 25  2  0
 25 26  1  0
 26 27  2  0
 27 28  1  0
 28 29  2  0
 22 30  1  0
 30 31  2  0
 30 32  1  0
 32 33  1  0
 33 34  1  0
 34 35  1  0
 35 36  2  0
 36 37  1  0
 37 38  2  0
 38 39  1  0
 39 40  2  0
 33 41  1  0
 41 42  2  0
 41 43  1  0
 18 44  1  0
 44 45  1  0
 45 46  1  0
 11  6  1  0
 45 15  1  0
 46 16  1  0
 29 24  1  0
 40 35  1  0
M  END
>  <Title>  (156) 
idAAMNgen6

$$$$

     RDKit          2D

 30 34  0  0  0  0  0  0  0  0999 V2000
    4.2747  -10.3530    0.0000 C   0  0  0  0  0  0  0  0  0  0  0  0
    2.8075  -10.0411    0.0000 C   0  0  0  0  0  0  0  0  0  0  0  0
    1.3402   -9.7292    0.0000 C   0  0  0  0  0  0  0  0  0  0  0  0
    2.4956  -11.5083    0.0000 C   0  0  0  0  0  0  0  0  0  0  0  0
    3.1193   -8.5739    0.0000 C   0  0  0  0  0  0  0  0  0  0  0  0
    2.0046   -7.5702    0.0000 C   0  0  0  0  0  0  0  0  0  0  0  0
    1.3945   -8.9405    0.0000 C   0  0  0  0  0  0  0  0  0  0  0  0
   -0.0973   -8.7837    0.0000 C   0  0  0  0  0  0  0  0  0  0  0  0
   -0.4091   -7.3165    0.0000 C   0  0  0  0  0  0  0  0  0  0  0  0
    0.8899   -6.5665    0.0000 C   0  0  0  0  0  0  0  0  0  0  0  0
   -0.2248   -5.5628    0.0000 C   0  0  0  0  0  0  0  0  0  0  0  0
    1.5000   -5.1962    0.0000 C   0  0  0  0  0  0  0  0  0  0  0  0
    0.7500   -3.8971    0.0000 C   0  0  0  0  0  0  0  0  0  0  0  0
    1.5000   -2.5981    0.0000 C   0  0  0  0  0  0  0  0  0  0  0  0
    0.7500   -1.2990    0.0000 C   0  0  0  0  0  0  0  0  0  0  0  0
    1.5000    0.0000    0.0000 C   0  0  0  0  0  0  0  0  0  0  0  0
    0.7500    1.2990    0.0000 C   0  0  0  0  0  0  0  0  0  0  0  0
   -0.7500    1.2990    0.0000 C   0  0  0  0  0  0  0  0  0  0  0  0
   -1.5000    0.0000    0.0000 C   0  0  0  0  0  0  0  0  0  0  0  0
    1.7010   -0.7500    0.0000 C   0  0  0  0  0  0  0  0  0  0  0  0
    3.0000   -0.0000    0.0000 C   0  0  0  0  0  0  0  0  0  0  0  0
    2.2500    1.2990    0.0000 C   0  0  0  0  0  0  0  0  0  0  0  0
    2.2500   -1.2990    0.0000 C   0  0  0  0  0  0  0  0  0  0  0  0
   -0.7500   -1.2990    0.0000 C   0  0  0  0  0  0  0  0  0  0  0  0
    2.9918   -5.3529    0.0000 C   0  0  0  0  0  0  0  0  0  0  0  0
    3.9955   -4.2382    0.0000 C   0  0  0  0  0  0  0  0  0  0  0  0
    5.1102   -5.2419    0.0000 C   0  0  0  0  0  0  0  0  0  0  0  0
    2.8808   -3.2345    0.0000 C   0  0  0  0  0  0  0  0  0  0  0  0
    4.9992   -3.1235    0.0000 C   0  0  0  0  0  0  0  0  0  0  0  0
    3.3037   -6.8202    0.0000 C   0  0  0  0  0  0  0  0  0  0  0  0
  1  2  1  0
  2  3  1  0
  2  4  1  0
  2  5  1  0
  5  6  1  0
  6  7  1  0
  7  8  1  0
  8  9  1  0
  9 10  1  0
 10 11  1  0
 10 12  1  0
 12 13  1  0
 13 14  1  0
 14 15  1  0
 15 16  1  0
 16 17  1  0
 17 18  1  0
 18 19  1  0
 19 20  1  0
 20 21  1  0
 21 22  1  0
 21 23  1  0
 19 24  1  0
 12 25  1  0
 25 26  1  0
 26 27  1  0
 26 28  1  0
 26 29  1  0
 25 30  1  0
 10  6  1  0
 23 15  1  0
 30  6  1  0
 24 15  1  0
 22 17  1  0
M  END
>  <Title>  (157) 
idAAMOgen6

$$$$

     RDKit          2D

 28 32  0  0  0  0  0  0  0  0999 V2000
    2.8075  -10.0411    0.0000 C   0  0  0  0  0  0  0  0  0  0  0  0
    3.1193   -8.5739    0.0000 C   0  0  0  0  0  0  0  0  0  0  0  0
    4.5459   -8.1103    0.0000 C   0  0  0  0  0  0  0  0  0  0  0  0
    2.0046   -7.5702    0.0000 C   0  0  0  0  0  0  0  0  0  0  0  0
    1.3945   -8.9405    0.0000 C   0  0  0  0  0  0  0  0  0  0  0  0
   -0.0973   -8.7837    0.0000 C   0  0  0  0  0  0  0  0  0  0  0  0
   -0.4091   -7.3165    0.0000 C   0  0  0  0  0  0  0  0  0  0  0  0
    0.8899   -6.5665    0.0000 C   0  0  0  0  0  0  0  0  0  0  0  0
   -0.2248   -5.5628    0.0000 C   0  0  0  0  0  0  0  0  0  0  0  0
    1.5000   -5.1962    0.0000 C   0  0  0  0  0  0  0  0  0  0  0  0
    0.7500   -3.8971    0.0000 C   0  0  0  0  0  0  0  0  0  0  0  0
    1.5000   -2.5981    0.0000 C   0  0  0  0  0  0  0  0  0  0  0  0
    0.7500   -1.2990    0.0000 C   0  0  0  0  0  0  0  0  0  0  0  0
    1.5000    0.0000    0.0000 C   0  0  0  0  0  0  0  0  0  0  0  0
    0.7500    1.2990    0.0000 C   0  0  0  0  0  0  0  0  0  0  0  0
   -0.7500    1.2990    0.0000 C   0  0  0  0  0  0  0  0  0  0  0  0
   -1.5000    0.0000    0.0000 C   0  0  0  0  0  0  0  0  0  0  0  0
    1.7010   -0.7500    0.0000 C   0  0  0  0  0  0  0  0  0  0  0  0
    3.0000   -0.0000    0.0000 C   0  0  0  0  0  0  0  0  0  0  0  0
    2.2500    1.2990    0.0000 C   0  0  0  0  0  0  0  0  0  0  0  0
    2.2500   -1.2990    0.0000 C   0  0  0  0  0  0  0  0  0  0  0  0
   -0.7500   -1.2990    0.0000 C   0  0  0  0  0  0  0  0  0  0  0  0
    2.9918   -5.3529    0.0000 C   0  0  0  0  0  0  0  0  0  0  0  0
    3.9955   -4.2382    0.0000 C   0  0  0  0  0  0  0  0  0  0  0  0
    5.1102   -5.2419    0.0000 C   0  0  0  0  0  0  0  0  0  0  0  0
    2.8808   -3.2345    0.0000 C   0  0  0  0  0  0  0  0  0  0  0  0
    4.9992   -3.1235    0.0000 C   0  0  0  0  0  0  0  0  0  0  0  0
    3.3037   -6.8202    0.0000 C   0  0  0  0  0  0  0  0  0  0  0  0
  1  2  1  0
  2  3  1  0
  2  4  1  0
  4  5  1  0
  5  6  1  0
  6  7  1  0
  7  8  1  0
  8  9  1  0
  8 10  1  0
 10 11  1  0
 11 12  1  0
 12 13  1  0
 13 14  1  0
 14 15  1  0
 15 16  1  0
 16 17  1  0
 17 18  1  0
 18 19  1  0
 19 20  1  0
 19 21  1  0
 17 22  1  0
 10 23  1  0
 23 24  1  0
 24 25  1  0
 24 26  1  0
 24 27  1  0
 23 28  1  0
  8  4  1  0
 21 13  1  0
 28  4  1  0
 22 13  1  0
 20 15  1  0
M  END
>  <Title>  (158) 
idAAMPgen6

$$$$

     RDKit          2D

 30 34  0  0  0  0  0  0  0  0999 V2000
   -1.8760    4.4687    0.0000 O   0  0  0  0  0  0  0  0  0  0  0  0
   -3.2463    3.8586    0.0000 C   0  0  0  0  0  0  0  0  0  0  0  0
   -4.4598    4.7402    0.0000 N   0  0  0  0  0  0  0  0  0  0  0  0
   -4.3030    6.2320    0.0000 C   0  0  0  0  0  0  0  0  0  0  0  0
   -5.5165    7.1137    0.0000 C   0  0  0  0  0  0  0  0  0  0  0  0
   -6.5955    6.0717    0.0000 C   0  0  0  0  0  0  0  0  0  0  0  0
   -8.0374    6.4852    0.0000 C   0  0  0  0  0  0  0  0  0  0  0  0
   -9.1164    5.4432    0.0000 C   0  0  0  0  0  0  0  0  0  0  0  0
   -8.7536    3.9877    0.0000 C   0  0  0  0  0  0  0  0  0  0  0  0
   -7.3117    3.5743    0.0000 C   0  0  0  0  0  0  0  0  0  0  0  0
   -6.2327    4.6163    0.0000 C   0  0  0  0  0  0  0  0  0  0  0  0
   -6.3553    8.3573    0.0000 C   0  0  0  0  0  0  0  0  0  0  0  0
   -4.8590    8.4619    0.0000 C   0  0  0  0  0  0  0  0  0  0  0  0
   -3.4031    2.3668    0.0000 N   0  0  0  0  0  0  0  0  0  0  0  0
   -2.1895    1.4851    0.0000 C   0  0  0  0  0  0  0  0  0  0  0  0
   -0.8192    2.0952    0.0000 C   0  0  0  0  0  0  0  0  0  0  0  0
    0.3943    1.2135    0.0000 C   0  0  0  0  0  0  0  0  0  0  0  0
    1.2760    0.0000    0.0000 C   0  0  0  0  0  0  0  0  0  0  0  0
    0.3943   -1.2135    0.0000 C   0  0  0  0  0  0  0  0  0  0  0  0
   -1.0323   -0.7500    0.0000 C   0  0  0  0  0  0  0  0  0  0  0  0
   -2.3463   -0.0067    0.0000 O   0  0  0  0  0  0  0  0  0  0  0  0
   -1.0323    0.7500    0.0000 N   0  0  0  0  0  0  0  0  0  0  0  0
   -2.2458    1.6317    0.0000 C   0  0  0  0  0  0  0  0  0  0  0  0
   -2.0890    3.1235    0.0000 C   0  0  0  0  0  0  0  0  0  0  0  0
   -3.3025    4.0051    0.0000 C   0  0  0  0  0  0  0  0  0  0  0  0
   -3.1458    5.4969    0.0000 C   0  0  0  0  0  0  0  0  0  0  0  0
   -4.3593    6.3786    0.0000 C   0  0  0  0  0  0  0  0  0  0  0  0
   -5.7296    5.7685    0.0000 C   0  0  0  0  0  0  0  0  0  0  0  0
   -5.8864    4.2767    0.0000 C   0  0  0  0  0  0  0  0  0  0  0  0
   -4.6729    3.3950    0.0000 C   0  0  0  0  0  0  0  0  0  0  0  0
  1  2  2  0
  2  3  1  0
  3  4  1  0
  4  5  1  0
  5  6  1  0
  6  7  2  0
  7  8  1  0
  8  9  2  0
  9 10  1  0
 10 11  2  0
  5 12  1  0
 12 13  1  0
  2 14  1  0
 14 15  1  0
 15 16  1  0
 16 17  1  0
 17 18  1  0
 18 19  1  0
 19 20  1  0
 20 21  1  0
 20 22  1  0
 22 23  1  0
 23 24  1  0
 24 25  1  0
 25 26  2  0
 26 27  1  0
 27 28  2  0
 28 29  1  0
 29 30  2  0
 13  5  1  0
 21 15  1  0
 30 25  1  0
 11  6  1  0
 22 17  1  0
M  END
>  <Title>  (159) 
idAAMQgen6

$$$$

     RDKit          2D

 61 66  0  0  0  0  0  0  0  0999 V2000
    3.4635   -1.4266    0.0000 C   0  0  0  0  0  0  0  0  0  0  0  0
    1.9635   -1.4266    0.0000 C   0  0  0  0  0  0  0  0  0  0  0  0
    2.4271   -2.8532    0.0000 C   0  0  0  0  0  0  0  0  0  0  0  0
    3.8943   -3.1650    0.0000 C   0  0  0  0  0  0  0  0  0  0  0  0
    4.3578   -4.5916    0.0000 C   0  0  0  0  0  0  0  0  0  0  0  0
    5.8250   -4.9035    0.0000 C   0  0  0  0  0  0  0  0  0  0  0  0
    6.8287   -3.7888    0.0000 O   0  0  0  0  0  0  0  0  0  0  0  0
    6.2885   -6.3301    0.0000 C   0  0  0  0  0  0  0  0  0  0  0  0
    4.8213   -6.6419    0.0000 O   0  0  0  0  0  0  0  0  0  0  0  0
    6.4453   -7.8219    0.0000 C   0  0  0  0  0  0  0  0  0  0  0  0
    7.9126   -8.1337    0.0000 C   0  0  0  0  0  0  0  0  0  0  0  0
    8.6626   -6.8347    0.0000 C   0  0  0  0  0  0  0  0  0  0  0  0
    7.6589   -5.7200    0.0000 C   0  0  0  0  0  0  0  0  0  0  0  0
    4.8980   -2.0503    0.0000 C   0  0  0  0  0  0  0  0  0  0  0  0
    4.4344   -0.6237    0.0000 O   0  0  0  0  0  0  0  0  0  0  0  0
    6.3652   -2.3622    0.0000 C   0  0  0  0  0  0  0  0  0  0  0  0
    7.3689   -1.2475    0.0000 O   0  0  0  0  0  0  0  0  0  0  0  0
    2.4271    0.0000    0.0000 C   0  0  0  0  0  0  0  0  0  0  0  0
    1.9635    1.4266    0.0000 C   0  0  0  0  0  0  0  0  0  0  0  0
    0.7500    2.3083    0.0000 C   0  0  0  0  0  0  0  0  0  0  0  0
   -0.7500    2.3083    0.0000 C   0  0  0  0  0  0  0  0  0  0  0  0
   -1.9635    1.4266    0.0000 C   0  0  0  0  0  0  0  0  0  0  0  0
   -2.4271    0.0000    0.0000 C   0  0  0  0  0  0  0  0  0  0  0  0
   -1.9635   -1.4266    0.0000 C   0  0  0  0  0  0  0  0  0  0  0  0
   -0.7500   -2.3083    0.0000 C   0  0  0  0  0  0  0  0  0  0  0  0
    0.7500   -2.3083    0.0000 C   0  0  0  0  0  0  0  0  0  0  0  0
    0.2865   -3.7348    0.0000 C   0  0  0  0  0  0  0  0  0  0  0  0
    0.9906   -5.0593    0.0000 O   0  0  0  0  0  0  0  0  0  0  0  0
   -1.1807   -4.0467    0.0000 N   0  0  0  0  0  0  0  0  0  0  0  0
   -1.6443   -5.4733    0.0000 C   0  0  0  0  0  0  0  0  0  0  0  0
   -3.1115   -5.7852    0.0000 C   0  0  0  0  0  0  0  0  0  0  0  0
   -3.5750   -7.2118    0.0000 C   0  0  0  0  0  0  0  0  0  0  0  0
   -5.0422   -7.5236    0.0000 C   0  0  0  0  0  0  0  0  0  0  0  0
   -5.5058   -8.9502    0.0000 C   0  0  0  0  0  0  0  0  0  0  0  0
   -4.5021  -10.0649    0.0000 C   0  0  0  0  0  0  0  0  0  0  0  0
   -3.0348   -9.7531    0.0000 C   0  0  0  0  0  0  0  0  0  0  0  0
   -2.5713   -8.3265    0.0000 C   0  0  0  0  0  0  0  0  0  0  0  0
   -0.6406   -6.5880    0.0000 C   0  0  0  0  0  0  0  0  0  0  0  0
    0.8266   -6.2761    0.0000 O   0  0  0  0  0  0  0  0  0  0  0  0
   -1.1041   -8.0146    0.0000 O   0  0  0  0  0  0  0  0  0  0  0  0
    1.9635   -3.1899    0.0000 C   0  0  0  0  0  0  0  0  0  0  0  0
    1.8067   -4.6817    0.0000 C   0  0  0  0  0  0  0  0  0  0  0  0
    3.0203   -5.5634    0.0000 C   0  0  0  0  0  0  0  0  0  0  0  0
    4.3906   -4.9533    0.0000 C   0  0  0  0  0  0  0  0  0  0  0  0
    4.5474   -3.4615    0.0000 C   0  0  0  0  0  0  0  0  0  0  0  0
    3.3338   -2.5798    0.0000 C   0  0  0  0  0  0  0  0  0  0  0  0
    3.1771   -4.0716    0.0000 C   0  0  0  0  0  0  0  0  0  0  0  0
    1.9635   -3.1899    0.0000 C   0  0  0  0  0  0  0  0  0  0  0  0
    2.4766   -1.7804    0.0000 O   0  0  0  0  0  0  0  0  0  0  0  0
    0.5932   -3.8000    0.0000 N   0  0  0  0  0  0  0  0  0  0  0  0
   -0.6203   -2.9184    0.0000 C   0  0  0  0  0  0  0  0  0  0  0  0
   -1.9906   -3.5285    0.0000 C   0  0  0  0  0  0  0  0  0  0  0  0
   -3.2042   -2.6468    0.0000 C   0  0  0  0  0  0  0  0  0  0  0  0
   -3.0474   -1.1550    0.0000 C   0  0  0  0  0  0  0  0  0  0  0  0
   -4.2609   -0.2733    0.0000 C   0  0  0  0  0  0  0  0  0  0  0  0
   -5.6312   -0.8834    0.0000 C   0  0  0  0  0  0  0  0  0  0  0  0
   -5.7880   -2.3752    0.0000 C   0  0  0  0  0  0  0  0  0  0  0  0
   -4.5745   -3.2569    0.0000 C   0  0  0  0  0  0  0  0  0  0  0  0
   -0.4635   -1.4266    0.0000 C   0  0  0  0  0  0  0  0  0  0  0  0
    0.9068   -0.8165    0.0000 O   0  0  0  0  0  0  0  0  0  0  0  0
   -1.6771   -0.5449    0.0000 O   0  0  0  0  0  0  0  0  0  0  0  0
  1  2  1  0
  2  3  1  0
  3  4  1  0
  4  5  1  0
  5  6  1  0
  6  7  1  0
  6  8  1  0
  8  9  1  0
  8 10  1  0
 10 11  1  0
 11 12  1  0
 12 13  1  0
  4 14  1  0
 14 15  1  0
 14 16  1  0
 16 17  1  0
  2 18  1  0
 18 19  1  0
 19 20  1  0
 20 21  1  0
 21 22  1  0
 22 23  1  0
 23 24  1  0
 24 25  1  0
 25 26  1  0
 26 27  1  0
 27 28  2  0
 27 29  1  0
 29 30  1  0
 30 31  1  0
 31 32  1  0
 32 33  2  0
 33 34  1  0
 34 35  2  0
 35 36  1  0
 36 37  2  0
 30 38  1  0
 38 39  2  0
 38 40  1  0
 26 41  1  0
 41 42  1  0
 42 43  1  0
 43 44  1  0
 44 45  1  0
 45 46  1  0
 45 47  1  0
 47 48  1  0
 48 49  2  0
 48 50  1  0
 50 51  1  0
 51 52  1  0
 52 53  1  0
 53 54  2  0
 54 55  1  0
 55 56  2  0
 56 57  1  0
 57 58  2  0
 51 59  1  0
 59 60  2  0
 59 61  1  0
 26  2  1  0
 37 32  1  0
 46 41  1  0
 58 53  1  0
 13  8  1  0
 47 43  1  0
M  END
>  <Title>  (160) 
idAAMRgen6

$$$$

     RDKit          2D

 23 24  0  0  0  0  0  0  0  0999 V2000
    2.3907    1.0037    0.0000 C   0  0  0  0  0  0  0  0  0  0  0  0
    1.2760    0.0000    0.0000 C   0  0  0  0  0  0  0  0  0  0  0  0
    2.3907   -1.0037    0.0000 C   0  0  0  0  0  0  0  0  0  0  0  0
    0.3943    1.2135    0.0000 C   0  0  0  0  0  0  0  0  0  0  0  0
   -1.0323    0.7500    0.0000 C   0  0  0  0  0  0  0  0  0  0  0  0
   -1.0323   -0.7500    0.0000 C   0  0  0  0  0  0  0  0  0  0  0  0
    0.3943   -1.2135    0.0000 C   0  0  0  0  0  0  0  0  0  0  0  0
    1.6933   -1.9635    0.0000 C   0  0  0  0  0  0  0  0  0  0  0  0
   -0.2158   -2.5838    0.0000 C   0  0  0  0  0  0  0  0  0  0  0  0
   -1.7076   -2.7406    0.0000 C   0  0  0  0  0  0  0  0  0  0  0  0
   -2.3177   -4.1110    0.0000 C   0  0  0  0  0  0  0  0  0  0  0  0
   -3.8095   -4.2677    0.0000 C   0  0  0  0  0  0  0  0  0  0  0  0
   -4.6912   -3.0542    0.0000 O   0  0  0  0  0  0  0  0  0  0  0  0
   -4.4196   -5.6381    0.0000 C   0  0  0  0  0  0  0  0  0  0  0  0
   -2.9930   -6.1016    0.0000 O   0  0  0  0  0  0  0  0  0  0  0  0
   -4.7314   -7.1053    0.0000 C   0  0  0  0  0  0  0  0  0  0  0  0
   -6.2232   -7.2621    0.0000 C   0  0  0  0  0  0  0  0  0  0  0  0
   -6.8333   -5.8918    0.0000 C   0  0  0  0  0  0  0  0  0  0  0  0
   -5.7186   -4.8881    0.0000 C   0  0  0  0  0  0  0  0  0  0  0  0
   -2.5893   -1.5271    0.0000 C   0  0  0  0  0  0  0  0  0  0  0  0
   -1.9792   -0.1568    0.0000 O   0  0  0  0  0  0  0  0  0  0  0  0
   -4.0811   -1.6839    0.0000 C   0  0  0  0  0  0  0  0  0  0  0  0
   -4.9627   -0.4704    0.0000 O   0  0  0  0  0  0  0  0  0  0  0  0
  1  2  1  0
  2  3  1  0
  2  4  1  0
  4  5  1  0
  5  6  1  0
  6  7  1  0
  7  8  1  0
  7  9  1  0
  9 10  1  0
 10 11  1  0
 11 12  1  0
 12 13  1  0
 12 14  1  0
 14 15  1  0
 14 16  1  0
 16 17  1  0
 17 18  1  0
 18 19  1  0
 10 20  1  0
 20 21  1  0
 20 22  1  0
 22 23  1  0
  7  2  1  0
 19 14  1  0
M  END
>  <Title>  (161) 
idAAMSgen6

$$$$

     RDKit          2D

 36 41  0  0  0  0  0  0  0  0999 V2000
   -4.5000   -2.5981    0.0000 O   0  0  0  0  0  0  0  0  0  0  0  0
   -3.7500   -3.8971    0.0000 C   0  0  0  0  0  0  0  0  0  0  0  0
   -2.2500   -3.8971    0.0000 N   0  0  0  0  0  0  0  0  0  0  0  0
   -1.5000   -2.5981    0.0000 C   0  0  0  0  0  0  0  0  0  0  0  0
   -0.0000   -2.5981    0.0000 C   0  0  0  0  0  0  0  0  0  0  0  0
    0.7500   -1.2990    0.0000 C   0  0  0  0  0  0  0  0  0  0  0  0
    1.5000    0.0000    0.0000 C   0  0  0  0  0  0  0  0  0  0  0  0
    0.7500    1.2990    0.0000 C   0  0  0  0  0  0  0  0  0  0  0  0
   -0.7500    1.2990    0.0000 C   0  0  0  0  0  0  0  0  0  0  0  0
   -1.5000    0.0000    0.0000 C   0  0  0  0  0  0  0  0  0  0  0  0
   -2.2500   -1.2990    0.0000 C   0  0  0  0  0  0  0  0  0  0  0  0
   -0.7500   -1.2990    0.0000 N   0  0  0  0  0  0  0  0  0  0  0  0
   -1.5000   -2.5981    0.0000 C   0  0  0  0  0  0  0  0  0  0  0  0
   -3.0000   -2.5981    0.0000 C   0  0  0  0  0  0  0  0  0  0  0  0
   -3.7500   -3.8971    0.0000 C   0  0  0  0  0  0  0  0  0  0  0  0
   -5.2500   -3.8971    0.0000 C   0  0  0  0  0  0  0  0  0  0  0  0
   -6.0000   -5.1962    0.0000 C   0  0  0  0  0  0  0  0  0  0  0  0
   -5.2500   -6.4952    0.0000 C   0  0  0  0  0  0  0  0  0  0  0  0
   -3.7500   -6.4952    0.0000 C   0  0  0  0  0  0  0  0  0  0  0  0
   -3.0000   -5.1962    0.0000 N   0  0  0  0  0  0  0  0  0  0  0  0
   -4.5000   -5.1962    0.0000 C   0  0  0  0  0  0  0  0  0  0  0  0
   -6.0000   -5.1962    0.0000 C   0  0  0  0  0  0  0  0  0  0  0  0
   -6.7500   -6.4952    0.0000 C   0  0  0  0  0  0  0  0  0  0  0  0
   -7.0619   -7.9624    0.0000 C   0  0  0  0  0  0  0  0  0  0  0  0
   -5.7628   -8.7124    0.0000 C   0  0  0  0  0  0  0  0  0  0  0  0
   -4.6481   -7.7087    0.0000 C   0  0  0  0  0  0  0  0  0  0  0  0
   -3.7500   -6.4952    0.0000 C   0  0  0  0  0  0  0  0  0  0  0  0
   -5.2582   -6.3384    0.0000 N   0  0  0  0  0  0  0  0  0  0  0  0
   -4.5082   -5.0394    0.0000 C   0  0  0  0  0  0  0  0  0  0  0  0
   -3.0082   -5.0394    0.0000 C   0  0  0  0  0  0  0  0  0  0  0  0
   -2.2582   -3.7403    0.0000 C   0  0  0  0  0  0  0  0  0  0  0  0
   -0.7582   -3.7403    0.0000 C   0  0  0  0  0  0  0  0  0  0  0  0
   -0.0082   -2.4413    0.0000 C   0  0  0  0  0  0  0  0  0  0  0  0
   -0.7582   -1.1422    0.0000 C   0  0  0  0  0  0  0  0  0  0  0  0
   -2.2582   -1.1422    0.0000 C   0  0  0  0  0  0  0  0  0  0  0  0
   -3.0082   -2.4413    0.0000 C   0  0  0  0  0  0  0  0  0  0  0  0
  1  2  2  0
  2  3  1  0
  3  4  1  0
  4  5  1  0
  5  6  1  0
  6  7  1  0
  7  8  1  0
  8  9  1  0
  9 10  1  0
 10 11  1  0
 10 12  1  0
 12 13  1  0
 13 14  1  0
 14 15  1  0
 15 16  2  0
 16 17  1  0
 17 18  2  0
 18 19  1  0
 19 20  2  0
  2 21  1  0
 21 22  1  0
 22 23  1  0
 23 24  1  0
 24 25  1  0
 25 26  1  0
 26 27  1  0
 26 28  1  0
 28 29  1  0
 29 30  1  0
 30 31  1  0
 31 32  2  0
 32 33  1  0
 33 34  2  0
 34 35  1  0
 35 36  2  0
 11  4  1  0
 20 15  1  0
 27 21  1  0
 36 31  1  0
 12  6  1  0
 28 23  1  0
M  END
>  <Title>  (162) 
idAAMTgen6

$$$$

     RDKit          2D

 58 64  0  0  0  0  0  0  0  0999 V2000
   -1.8760    4.4687    0.0000 O   0  0  0  0  0  0  0  0  0  0  0  0
   -3.2463    3.8586    0.0000 C   0  0  0  0  0  0  0  0  0  0  0  0
   -4.4598    4.7402    0.0000 N   0  0  0  0  0  0  0  0  0  0  0  0
   -4.3030    6.2320    0.0000 C   0  0  0  0  0  0  0  0  0  0  0  0
   -5.5165    7.1137    0.0000 C   0  0  0  0  0  0  0  0  0  0  0  0
   -6.5955    6.0717    0.0000 C   0  0  0  0  0  0  0  0  0  0  0  0
   -8.0374    6.4852    0.0000 C   0  0  0  0  0  0  0  0  0  0  0  0
   -9.1164    5.4432    0.0000 C   0  0  0  0  0  0  0  0  0  0  0  0
   -8.7536    3.9877    0.0000 C   0  0  0  0  0  0  0  0  0  0  0  0
   -7.3117    3.5743    0.0000 C   0  0  0  0  0  0  0  0  0  0  0  0
   -6.2327    4.6163    0.0000 C   0  0  0  0  0  0  0  0  0  0  0  0
   -6.3553    8.3573    0.0000 C   0  0  0  0  0  0  0  0  0  0  0  0
   -4.8590    8.4619    0.0000 C   0  0  0  0  0  0  0  0  0  0  0  0
   -3.4031    2.3668    0.0000 N   0  0  0  0  0  0  0  0  0  0  0  0
   -2.1895    1.4851    0.0000 C   0  0  0  0  0  0  0  0  0  0  0  0
   -0.8192    2.0952    0.0000 C   0  0  0  0  0  0  0  0  0  0  0  0
    0.3943    1.2135    0.0000 C   0  0  0  0  0  0  0  0  0  0  0  0
    1.2760    0.0000    0.0000 C   0  0  0  0  0  0  0  0  0  0  0  0
    0.3943   -1.2135    0.0000 C   0  0  0  0  0  0  0  0  0  0  0  0
   -1.0323   -0.7500    0.0000 C   0  0  0  0  0  0  0  0  0  0  0  0
   -2.3463   -0.0067    0.0000 C   0  0  0  0  0  0  0  0  0  0  0  0
   -1.0323    0.7500    0.0000 C   0  0  0  0  0  0  0  0  0  0  0  0
   -2.2458    1.6317    0.0000 C   0  0  0  0  0  0  0  0  0  0  0  0
   -3.6161    1.0216    0.0000 O   0  0  0  0  0  0  0  0  0  0  0  0
   -2.0890    3.1235    0.0000 N   0  0  0  0  0  0  0  0  0  0  0  0
   -3.3025    4.0051    0.0000 C   0  0  0  0  0  0  0  0  0  0  0  0
   -3.1458    5.4969    0.0000 C   0  0  0  0  0  0  0  0  0  0  0  0
   -4.3593    6.3786    0.0000 C   0  0  0  0  0  0  0  0  0  0  0  0
   -4.2025    7.8704    0.0000 C   0  0  0  0  0  0  0  0  0  0  0  0
   -5.4160    8.7521    0.0000 C   0  0  0  0  0  0  0  0  0  0  0  0
   -6.7863    8.1420    0.0000 C   0  0  0  0  0  0  0  0  0  0  0  0
   -6.9431    6.6502    0.0000 C   0  0  0  0  0  0  0  0  0  0  0  0
   -5.7296    5.7685    0.0000 C   0  0  0  0  0  0  0  0  0  0  0  0
   -4.6729    3.3950    0.0000 C   0  0  0  0  0  0  0  0  0  0  0  0
   -4.8297    1.9033    0.0000 O   0  0  0  0  0  0  0  0  0  0  0  0
   -5.8864    4.2767    0.0000 N   0  0  0  0  0  0  0  0  0  0  0  0
   -7.2567    3.6666    0.0000 C   0  0  0  0  0  0  0  0  0  0  0  0
   -8.4702    4.5483    0.0000 C   0  0  0  0  0  0  0  0  0  0  0  0
   -9.8406    3.9382    0.0000 C   0  0  0  0  0  0  0  0  0  0  0  0
  -11.0541    4.8199    0.0000 C   0  0  0  0  0  0  0  0  0  0  0  0
  -12.4244    4.2098    0.0000 C   0  0  0  0  0  0  0  0  0  0  0  0
  -12.5812    2.7180    0.0000 C   0  0  0  0  0  0  0  0  0  0  0  0
  -11.3677    1.8363    0.0000 C   0  0  0  0  0  0  0  0  0  0  0  0
   -9.9973    2.4464    0.0000 C   0  0  0  0  0  0  0  0  0  0  0  0
   -7.4135    2.1748    0.0000 C   0  0  0  0  0  0  0  0  0  0  0  0
   -6.2000    1.2931    0.0000 O   0  0  0  0  0  0  0  0  0  0  0  0
   -8.7838    1.5647    0.0000 N   0  0  0  0  0  0  0  0  0  0  0  0
   -8.9406    0.0729    0.0000 C   0  0  0  0  0  0  0  0  0  0  0  0
  -10.3109   -0.5372    0.0000 C   0  0  0  0  0  0  0  0  0  0  0  0
  -10.4677   -2.0290    0.0000 C   0  0  0  0  0  0  0  0  0  0  0  0
  -11.8380   -2.6391    0.0000 C   0  0  0  0  0  0  0  0  0  0  0  0
  -11.9948   -4.1308    0.0000 C   0  0  0  0  0  0  0  0  0  0  0  0
  -10.7813   -5.0125    0.0000 C   0  0  0  0  0  0  0  0  0  0  0  0
   -9.4110   -4.4024    0.0000 C   0  0  0  0  0  0  0  0  0  0  0  0
   -9.2542   -2.9106    0.0000 C   0  0  0  0  0  0  0  0  0  0  0  0
   -7.7271   -0.8087    0.0000 C   0  0  0  0  0  0  0  0  0  0  0  0
   -6.3568   -0.1986    0.0000 O   0  0  0  0  0  0  0  0  0  0  0  0
   -7.8839   -2.3005    0.0000 O   0  0  0  0  0  0  0  0  0  0  0  0
  1  2  2  0
  2  3  1  0
  3  4  1  0
  4  5  1  0
  5  6  1  0
  6  7  2  0
  7  8  1  0
  8  9  2  0
  9 10  1  0
 10 11  2  0
  5 12  1  0
 12 13  1  0
  2 14  1  0
 14 15  1  0
 15 16  1  0
 16 17  1  0
 17 18  1  0
 18 19  1  0
 19 20  1  0
 20 21  1  0
 20 22  1  0
 22 23  1  0
 23 24  2  0
 23 25  1  0
 25 26  1  0
 26 27  1  0
 27 28  1  0
 28 29  2  0
 29 30  1  0
 30 31  2  0
 31 32  1  0
 32 33  2  0
 26 34  1  0
 34 35  2  0
 34 36  1  0
 36 37  1  0
 37 38  1  0
 38 39  1  0
 39 40  2  0
 40 41  1  0
 41 42  2  0
 42 43  1  0
 43 44  2  0
 37 45  1  0
 45 46  2  0
 45 47  1  0
 47 48  1  0
 48 49  1  0
 49 50  1  0
 50 51  2  0
 51 52  1  0
 52 53  2  0
 53 54  1  0
 54 55  2  0
 48 56  1  0
 56 57  2  0
 56 58  1  0
 13  5  1  0
 21 15  1  0
 33 28  1  0
 44 39  1  0
 55 50  1  0
 11  6  1  0
 22 17  1  0
M  END
>  <Title>  (163) 
idAAMUgen6

$$$$

     RDKit          2D

 52 58  0  0  0  0  0  0  0  0999 V2000
    5.2353   -7.4389    0.0000 C   0  0  0  0  0  0  0  0  0  0  0  0
    5.7361   -6.0250    0.0000 C   0  0  0  0  0  0  0  0  0  0  0  0
    4.2407   -5.9073    0.0000 C   0  0  0  0  0  0  0  0  0  0  0  0
    3.5949   -4.5534    0.0000 C   0  0  0  0  0  0  0  0  0  0  0  0
    4.4445   -3.3172    0.0000 C   0  0  0  0  0  0  0  0  0  0  0  0
    3.7988   -1.9633    0.0000 C   0  0  0  0  0  0  0  0  0  0  0  0
    2.3763   -1.4873    0.0000 O   0  0  0  0  0  0  0  0  0  0  0  0
    4.6484   -0.7272    0.0000 C   0  0  0  0  0  0  0  0  0  0  0  0
    3.4745    0.2067    0.0000 O   0  0  0  0  0  0  0  0  0  0  0  0
    5.7182   -1.7785    0.0000 C   0  0  0  0  0  0  0  0  0  0  0  0
    7.1637   -1.3777    0.0000 C   0  0  0  0  0  0  0  0  0  0  0  0
    7.5393    0.0746    0.0000 C   0  0  0  0  0  0  0  0  0  0  0  0
    6.4694    1.1259    0.0000 C   0  0  0  0  0  0  0  0  0  0  0  0
    6.8449    2.5781    0.0000 O   0  0  0  0  0  0  0  0  0  0  0  0
    5.0239    0.7251    0.0000 C   0  0  0  0  0  0  0  0  0  0  0  0
    2.0995   -4.4357    0.0000 C   0  0  0  0  0  0  0  0  0  0  0  0
    0.9760   -5.4296    0.0000 O   0  0  0  0  0  0  0  0  0  0  0  0
    1.4538   -3.0818    0.0000 C   0  0  0  0  0  0  0  0  0  0  0  0
   -0.0416   -2.9642    0.0000 O   0  0  0  0  0  0  0  0  0  0  0  0
    6.9722   -6.8746    0.0000 C   0  0  0  0  0  0  0  0  0  0  0  0
    8.4471   -6.6012    0.0000 C   0  0  0  0  0  0  0  0  0  0  0  0
    9.2967   -5.3650    0.0000 C   0  0  0  0  0  0  0  0  0  0  0  0
    9.0234   -3.8902    0.0000 C   0  0  0  0  0  0  0  0  0  0  0  0
    7.7872   -3.0406    0.0000 C   0  0  0  0  0  0  0  0  0  0  0  0
    6.3123   -3.3139    0.0000 C   0  0  0  0  0  0  0  0  0  0  0  0
    5.4627   -4.5501    0.0000 C   0  0  0  0  0  0  0  0  0  0  0  0
    3.9955   -4.2382    0.0000 C   0  0  0  0  0  0  0  0  0  0  0  0
    2.9918   -5.3529    0.0000 C   0  0  0  0  0  0  0  0  0  0  0  0
    3.3037   -6.8202    0.0000 C   0  0  0  0  0  0  0  0  0  0  0  0
    2.0046   -7.5702    0.0000 C   0  0  0  0  0  0  0  0  0  0  0  0
    3.1193   -8.5739    0.0000 C   0  0  0  0  0  0  0  0  0  0  0  0
    2.1156   -9.6886    0.0000 C   0  0  0  0  0  0  0  0  0  0  0  0
    4.1230   -7.4591    0.0000 C   0  0  0  0  0  0  0  0  0  0  0  0
    4.2340   -9.5776    0.0000 C   0  0  0  0  0  0  0  0  0  0  0  0
    1.3945   -8.9405    0.0000 C   0  0  0  0  0  0  0  0  0  0  0  0
   -0.0973   -8.7837    0.0000 C   0  0  0  0  0  0  0  0  0  0  0  0
   -0.4091   -7.3165    0.0000 C   0  0  0  0  0  0  0  0  0  0  0  0
    0.8899   -6.5665    0.0000 C   0  0  0  0  0  0  0  0  0  0  0  0
   -0.2248   -5.5628    0.0000 C   0  0  0  0  0  0  0  0  0  0  0  0
    1.5000   -5.1962    0.0000 C   0  0  0  0  0  0  0  0  0  0  0  0
    0.7500   -3.8971    0.0000 C   0  0  0  0  0  0  0  0  0  0  0  0
    1.5000   -2.5981    0.0000 C   0  0  0  0  0  0  0  0  0  0  0  0
    0.7500   -1.2990    0.0000 C   0  0  0  0  0  0  0  0  0  0  0  0
    1.5000    0.0000    0.0000 C   0  0  0  0  0  0  0  0  0  0  0  0
    0.7500    1.2990    0.0000 C   0  0  0  0  0  0  0  0  0  0  0  0
   -0.7500    1.2990    0.0000 C   0  0  0  0  0  0  0  0  0  0  0  0
   -1.5000    0.0000    0.0000 C   0  0  0  0  0  0  0  0  0  0  0  0
    1.7010   -0.7500    0.0000 C   0  0  0  0  0  0  0  0  0  0  0  0
    3.0000   -0.0000    0.0000 C   0  0  0  0  0  0  0  0  0  0  0  0
    2.2500    1.2990    0.0000 C   0  0  0  0  0  0  0  0  0  0  0  0
    2.2500   -1.2990    0.0000 C   0  0  0  0  0  0  0  0  0  0  0  0
   -0.7500   -1.2990    0.0000 C   0  0  0  0  0  0  0  0  0  0  0  0
  1  2  1  0
  2  3  1  0
  3  4  1  0
  4  5  1  0
  5  6  1  0
  6  7  1  0
  6  8  1  0
  8  9  1  0
  8 10  1  0
 10 11  1  0
 11 12  1  0
 12 13  1  0
 13 14  1  0
 13 15  1  0
  4 16  1  0
 16 17  1  0
 16 18  1  0
 18 19  1  0
  2 20  1  0
 20 21  1  0
 21 22  1  0
 22 23  1  0
 23 24  1  0
 24 25  1  0
 25 26  1  0
 26 27  1  0
 27 28  1  0
 28 29  1  0
 29 30  1  0
 30 31  1  0
 31 32  1  0
 31 33  1  0
 31 34  1  0
 30 35  1  0
 35 36  1  0
 36 37  1  0
 37 38  1  0
 38 39  1  0
 38 40  1  0
 40 41  1  0
 41 42  1  0
 42 43  1  0
 43 44  1  0
 44 45  1  0
 45 46  1  0
 46 47  1  0
 47 48  1  0
 48 49  1  0
 49 50  1  0
 49 51  1  0
 47 52  1  0
 26  2  1  0
 40 28  1  0
 51 43  1  0
 15  8  1  0
 38 30  1  0
 52 43  1  0
 50 45  1  0
M  END
>  <Title>  (164) 
idAAMVgen6

$$$$

     RDKit          2D

 41 43  0  0  0  0  0  0  0  0999 V2000
    3.4720    2.7846    0.0000 C   0  0  0  0  0  0  0  0  0  0  0  0
    2.7750    1.4564    0.0000 C   0  0  0  0  0  0  0  0  0  0  0  0
    4.2640    1.2756    0.0000 C   0  0  0  0  0  0  0  0  0  0  0  0
    4.8520   -0.1044    0.0000 C   0  0  0  0  0  0  0  0  0  0  0  0
    3.9509   -1.3035    0.0000 C   0  0  0  0  0  0  0  0  0  0  0  0
    4.5388   -2.6835    0.0000 C   0  0  0  0  0  0  0  0  0  0  0  0
    6.0279   -2.8643    0.0000 O   0  0  0  0  0  0  0  0  0  0  0  0
    3.6377   -3.8827    0.0000 C   0  0  0  0  0  0  0  0  0  0  0  0
    2.5393   -2.8611    0.0000 O   0  0  0  0  0  0  0  0  0  0  0  0
    2.5070   -4.8683    0.0000 C   0  0  0  0  0  0  0  0  0  0  0  0
    3.0949   -6.2482    0.0000 C   0  0  0  0  0  0  0  0  0  0  0  0
    4.5890   -6.1155    0.0000 C   0  0  0  0  0  0  0  0  0  0  0  0
    4.9245   -4.6535    0.0000 C   0  0  0  0  0  0  0  0  0  0  0  0
    6.3410   -0.2852    0.0000 C   0  0  0  0  0  0  0  0  0  0  0  0
    7.2422    0.9140    0.0000 O   0  0  0  0  0  0  0  0  0  0  0  0
    6.9290   -1.6651    0.0000 C   0  0  0  0  0  0  0  0  0  0  0  0
    8.4181   -1.8459    0.0000 O   0  0  0  0  0  0  0  0  0  0  0  0
    3.1339    0.0000    0.0000 C   0  0  0  0  0  0  0  0  0  0  0  0
    2.7750   -1.4564    0.0000 C   0  0  0  0  0  0  0  0  0  0  0  0
    1.7803   -2.5792    0.0000 C   0  0  0  0  0  0  0  0  0  0  0  0
    0.3778   -3.1111    0.0000 C   0  0  0  0  0  0  0  0  0  0  0  0
   -1.1113   -2.9303    0.0000 C   0  0  0  0  0  0  0  0  0  0  0  0
   -2.3458   -2.0782    0.0000 C   0  0  0  0  0  0  0  0  0  0  0  0
   -3.0429   -0.7500    0.0000 C   0  0  0  0  0  0  0  0  0  0  0  0
   -3.0429    0.7500    0.0000 C   0  0  0  0  0  0  0  0  0  0  0  0
   -2.3458    2.0782    0.0000 C   0  0  0  0  0  0  0  0  0  0  0  0
   -1.1113    2.9303    0.0000 C   0  0  0  0  0  0  0  0  0  0  0  0
    0.3778    3.1111    0.0000 C   0  0  0  0  0  0  0  0  0  0  0  0
    1.7803    2.5792    0.0000 C   0  0  0  0  0  0  0  0  0  0  0  0
    2.6324    3.8137    0.0000 C   0  0  0  0  0  0  0  0  0  0  0  0
    1.9893    5.1688    0.0000 C   0  0  0  0  0  0  0  0  0  0  0  0
    0.7088    4.3877    0.0000 C   0  0  0  0  0  0  0  0  0  0  0  0
   -0.0724    5.6682    0.0000 C   0  0  0  0  0  0  0  0  0  0  0  0
    1.1569    2.9562    0.0000 C   0  0  0  0  0  0  0  0  0  0  0  0
   -0.5717    3.6065    0.0000 C   0  0  0  0  0  0  0  0  0  0  0  0
    1.0786    6.3607    0.0000 C   0  0  0  0  0  0  0  0  0  0  0  0
    1.9307    7.5952    0.0000 C   0  0  0  0  0  0  0  0  0  0  0  0
    3.3681    7.1663    0.0000 C   0  0  0  0  0  0  0  0  0  0  0  0
    3.4043    5.6667    0.0000 C   0  0  0  0  0  0  0  0  0  0  0  0
    4.8919    5.8595    0.0000 C   0  0  0  0  0  0  0  0  0  0  0  0
    3.7515    4.2074    0.0000 C   0  0  0  0  0  0  0  0  0  0  0  0
  1  2  1  0
  2  3  1  0
  3  4  1  0
  4  5  1  0
  5  6  1  0
  6  7  1  0
  6  8  1  0
  8  9  1  0
  8 10  1  0
 10 11  1  0
 11 12  1  0
 12 13  1  0
  4 14  1  0
 14 15  1  0
 14 16  1  0
 16 17  1  0
  2 18  1  0
 18 19  1  0
 19 20  1  0
 20 21  1  0
 21 22  1  0
 22 23  1  0
 23 24  1  0
 24 25  1  0
 25 26  1  0
 26 27  1  0
 27 28  1  0
 28 29  1  0
 29 30  1  0
 30 31  1  0
 31 32  1  0
 32 33  1  0
 32 34  1  0
 32 35  1  0
 31 36  1  0
 36 37  1  0
 37 38  1  0
 38 39  1  0
 39 40  1  0
 39 41  1  0
 29  2  1  0
 39 31  1  0
 13  8  1  0
M  END
>  <Title>  (165) 
idAAMWgen6

$$$$

     RDKit          2D

 62 69  0  0  0  0  0  0  0  0999 V2000
   -4.5850    1.4432    0.0000 O   0  0  0  0  0  0  0  0  0  0  0  0
   -3.4031    2.3668    0.0000 C   0  0  0  0  0  0  0  0  0  0  0  0
   -3.2463    3.8586    0.0000 N   0  0  0  0  0  0  0  0  0  0  0  0
   -4.4598    4.7402    0.0000 C   0  0  0  0  0  0  0  0  0  0  0  0
   -4.3030    6.2320    0.0000 C   0  0  0  0  0  0  0  0  0  0  0  0
   -5.5165    7.1137    0.0000 C   0  0  0  0  0  0  0  0  0  0  0  0
   -6.8869    6.5036    0.0000 C   0  0  0  0  0  0  0  0  0  0  0  0
   -7.0436    5.0118    0.0000 C   0  0  0  0  0  0  0  0  0  0  0  0
   -5.8301    4.1301    0.0000 C   0  0  0  0  0  0  0  0  0  0  0  0
   -5.6733    5.6219    0.0000 N   0  0  0  0  0  0  0  0  0  0  0  0
   -4.4598    4.7402    0.0000 C   0  0  0  0  0  0  0  0  0  0  0  0
   -3.0895    5.3503    0.0000 C   0  0  0  0  0  0  0  0  0  0  0  0
   -1.8760    4.4687    0.0000 C   0  0  0  0  0  0  0  0  0  0  0  0
   -2.0328    2.9769    0.0000 C   0  0  0  0  0  0  0  0  0  0  0  0
   -0.8192    2.0952    0.0000 C   0  0  0  0  0  0  0  0  0  0  0  0
    0.5511    2.7053    0.0000 C   0  0  0  0  0  0  0  0  0  0  0  0
    0.7079    4.1971    0.0000 C   0  0  0  0  0  0  0  0  0  0  0  0
   -0.5056    5.0788    0.0000 C   0  0  0  0  0  0  0  0  0  0  0  0
   -2.1895    1.4851    0.0000 C   0  0  0  0  0  0  0  0  0  0  0  0
   -0.8192    2.0952    0.0000 C   0  0  0  0  0  0  0  0  0  0  0  0
    0.3943    1.2135    0.0000 C   0  0  0  0  0  0  0  0  0  0  0  0
    1.2760    0.0000    0.0000 C   0  0  0  0  0  0  0  0  0  0  0  0
    0.3943   -1.2135    0.0000 C   0  0  0  0  0  0  0  0  0  0  0  0
   -1.0323   -0.7500    0.0000 C   0  0  0  0  0  0  0  0  0  0  0  0
   -2.3463   -0.0067    0.0000 C   0  0  0  0  0  0  0  0  0  0  0  0
   -1.0323    0.7500    0.0000 C   0  0  0  0  0  0  0  0  0  0  0  0
   -2.2458    1.6317    0.0000 C   0  0  0  0  0  0  0  0  0  0  0  0
   -3.6161    1.0216    0.0000 O   0  0  0  0  0  0  0  0  0  0  0  0
   -2.0890    3.1235    0.0000 N   0  0  0  0  0  0  0  0  0  0  0  0
   -3.3025    4.0051    0.0000 C   0  0  0  0  0  0  0  0  0  0  0  0
   -3.1458    5.4969    0.0000 C   0  0  0  0  0  0  0  0  0  0  0  0
   -4.3593    6.3786    0.0000 C   0  0  0  0  0  0  0  0  0  0  0  0
   -4.2025    7.8704    0.0000 C   0  0  0  0  0  0  0  0  0  0  0  0
   -5.4160    8.7521    0.0000 C   0  0  0  0  0  0  0  0  0  0  0  0
   -6.7863    8.1420    0.0000 C   0  0  0  0  0  0  0  0  0  0  0  0
   -6.9431    6.6502    0.0000 C   0  0  0  0  0  0  0  0  0  0  0  0
   -5.7296    5.7685    0.0000 C   0  0  0  0  0  0  0  0  0  0  0  0
   -4.6729    3.3950    0.0000 C   0  0  0  0  0  0  0  0  0  0  0  0
   -6.0637    3.9569    0.0000 O   0  0  0  0  0  0  0  0  0  0  0  0
   -4.8297    1.9033    0.0000 N   0  0  0  0  0  0  0  0  0  0  0  0
   -6.2000    1.2931    0.0000 C   0  0  0  0  0  0  0  0  0  0  0  0
   -6.3568   -0.1986    0.0000 C   0  0  0  0  0  0  0  0  0  0  0  0
   -7.7271   -0.8087    0.0000 C   0  0  0  0  0  0  0  0  0  0  0  0
   -8.9406    0.0729    0.0000 C   0  0  0  0  0  0  0  0  0  0  0  0
  -10.3109   -0.5372    0.0000 C   0  0  0  0  0  0  0  0  0  0  0  0
  -10.4677   -2.0290    0.0000 C   0  0  0  0  0  0  0  0  0  0  0  0
   -9.2542   -2.9106    0.0000 C   0  0  0  0  0  0  0  0  0  0  0  0
   -7.8839   -2.3005    0.0000 C   0  0  0  0  0  0  0  0  0  0  0  0
   -7.4135    2.1748    0.0000 C   0  0  0  0  0  0  0  0  0  0  0  0
   -7.2567    3.6666    0.0000 O   0  0  0  0  0  0  0  0  0  0  0  0
   -8.7838    1.5647    0.0000 N   0  0  0  0  0  0  0  0  0  0  0  0
   -9.9973    2.4464    0.0000 C   0  0  0  0  0  0  0  0  0  0  0  0
  -11.3677    1.8363    0.0000 C   0  0  0  0  0  0  0  0  0  0  0  0
  -12.5812    2.7180    0.0000 C   0  0  0  0  0  0  0  0  0  0  0  0
  -12.4244    4.2098    0.0000 C   0  0  0  0  0  0  0  0  0  0  0  0
  -13.6379    5.0914    0.0000 C   0  0  0  0  0  0  0  0  0  0  0  0
  -15.0082    4.4813    0.0000 C   0  0  0  0  0  0  0  0  0  0  0  0
  -15.1650    2.9895    0.0000 C   0  0  0  0  0  0  0  0  0  0  0  0
  -13.9515    2.1079    0.0000 C   0  0  0  0  0  0  0  0  0  0  0  0
   -9.8406    3.9382    0.0000 C   0  0  0  0  0  0  0  0  0  0  0  0
   -8.4702    4.5483    0.0000 O   0  0  0  0  0  0  0  0  0  0  0  0
  -11.0541    4.8199    0.0000 O   0  0  0  0  0  0  0  0  0  0  0  0
  1  2  2  0
  2  3  1  0
  3  4  1  0
  4  5  1  0
  5  6  1  0
  6  7  1  0
  7  8  1  0
  8  9  1  0
  8 10  1  0
 10 11  1  0
 11 12  1  0
 12 13  1  0
 13 14  2  0
 14 15  1  0
 15 16  2  0
 16 17  1  0
 17 18  2  0
  2 19  1  0
 19 20  1  0
 20 21  1  0
 21 22  1  0
 22 23  1  0
 23 24  1  0
 24 25  1  0
 24 26  1  0
 26 27  1  0
 27 28  2  0
 27 29  1  0
 29 30  1  0
 30 31  1  0
 31 32  1  0
 32 33  2  0
 33 34  1  0
 34 35  2  0
 35 36  1  0
 36 37  2  0
 30 38  1  0
 38 39  2  0
 38 40  1  0
 40 41  1  0
 41 42  1  0
 42 43  1  0
 43 44  2  0
 44 45  1  0
 45 46  2  0
 46 47  1  0
 47 48  2  0
 41 49  1  0
 49 50  2  0
 49 51  1  0
 51 52  1  0
 52 53  1  0
 53 54  1  0
 54 55  2  0
 55 56  1  0
 56 57  2  0
 57 58  1  0
 58 59  2  0
 52 60  1  0
 60 61  2  0
 60 62  1  0
  9  4  1  0
 18 13  1  0
 25 19  1  0
 37 32  1  0
 48 43  1  0
 59 54  1  0
 10  6  1  0
 26 21  1  0
M  END
>  <Title>  (166) 
idAAMXgen6

$$$$

     RDKit          2D

 24 26  0  0  0  0  0  0  0  0999 V2000
   -2.6491   -2.6431    0.0000 C   0  0  0  0  0  0  0  0  0  0  0  0
   -1.5000   -3.6073    0.0000 C   0  0  0  0  0  0  0  0  0  0  0  0
   -2.6491   -4.5715    0.0000 C   0  0  0  0  0  0  0  0  0  0  0  0
   -0.7500   -4.9063    0.0000 C   0  0  0  0  0  0  0  0  0  0  0  0
    0.7500   -4.9063    0.0000 C   0  0  0  0  0  0  0  0  0  0  0  0
    1.5000   -3.6073    0.0000 C   0  0  0  0  0  0  0  0  0  0  0  0
    0.7500   -2.3083    0.0000 C   0  0  0  0  0  0  0  0  0  0  0  0
    2.2172   -2.6201    0.0000 C   0  0  0  0  0  0  0  0  0  0  0  0
    1.9635   -1.4266    0.0000 C   0  0  0  0  0  0  0  0  0  0  0  0
    3.1771   -2.3083    0.0000 C   0  0  0  0  0  0  0  0  0  0  0  0
    4.5474   -1.6982    0.0000 C   0  0  0  0  0  0  0  0  0  0  0  0
    5.7609   -2.5798    0.0000 C   0  0  0  0  0  0  0  0  0  0  0  0
    7.1875   -2.1163    0.0000 C   0  0  0  0  0  0  0  0  0  0  0  0
    8.0692   -3.3298    0.0000 C   0  0  0  0  0  0  0  0  0  0  0  0
    7.1875   -4.5434    0.0000 C   0  0  0  0  0  0  0  0  0  0  0  0
    5.7609   -4.0798    0.0000 C   0  0  0  0  0  0  0  0  0  0  0  0
    2.4271    0.0000    0.0000 C   0  0  0  0  0  0  0  0  0  0  0  0
    1.9635    1.4266    0.0000 C   0  0  0  0  0  0  0  0  0  0  0  0
    0.7500    2.3083    0.0000 C   0  0  0  0  0  0  0  0  0  0  0  0
   -0.7500    2.3083    0.0000 C   0  0  0  0  0  0  0  0  0  0  0  0
   -1.9635    1.4266    0.0000 C   0  0  0  0  0  0  0  0  0  0  0  0
   -2.4271    0.0000    0.0000 C   0  0  0  0  0  0  0  0  0  0  0  0
   -1.9635   -1.4266    0.0000 C   0  0  0  0  0  0  0  0  0  0  0  0
   -0.7500   -2.3083    0.0000 C   0  0  0  0  0  0  0  0  0  0  0  0
  1  2  1  0
  2  3  1  0
  2  4  1  0
  4  5  1  0
  5  6  1  0
  6  7  1  0
  7  8  1  0
  7  9  1  0
  9 10  1  0
 10 11  1  0
 11 12  1  0
 12 13  1  0
 13 14  1  0
 14 15  1  0
 15 16  1  0
  9 17  1  0
 17 18  1  0
 18 19  1  0
 19 20  1  0
 20 21  1  0
 21 22  1  0
 22 23  1  0
 23 24  1  0
 24  2  1  0
 24  7  1  0
 16 12  1  0
M  END
>  <Title>  (167) 
idAAMYgen6

$$$$

     RDKit          2D

 24 27  0  0  0  0  0  0  0  0999 V2000
   -4.7734    1.7567    0.0000 O   0  0  0  0  0  0  0  0  0  0  0  0
   -3.4031    2.3668    0.0000 C   0  0  0  0  0  0  0  0  0  0  0  0
   -3.2463    3.8586    0.0000 N   0  0  0  0  0  0  0  0  0  0  0  0
   -4.4598    4.7402    0.0000 C   0  0  0  0  0  0  0  0  0  0  0  0
   -5.8864    4.2767    0.0000 C   0  0  0  0  0  0  0  0  0  0  0  0
   -6.7681    5.4902    0.0000 C   0  0  0  0  0  0  0  0  0  0  0  0
   -5.8864    6.7038    0.0000 C   0  0  0  0  0  0  0  0  0  0  0  0
   -4.4598    6.2402    0.0000 C   0  0  0  0  0  0  0  0  0  0  0  0
   -2.1895    1.4851    0.0000 C   0  0  0  0  0  0  0  0  0  0  0  0
   -0.8192    2.0952    0.0000 C   0  0  0  0  0  0  0  0  0  0  0  0
    0.3943    1.2135    0.0000 C   0  0  0  0  0  0  0  0  0  0  0  0
    1.2760    0.0000    0.0000 C   0  0  0  0  0  0  0  0  0  0  0  0
    0.3943   -1.2135    0.0000 C   0  0  0  0  0  0  0  0  0  0  0  0
   -1.0323   -0.7500    0.0000 C   0  0  0  0  0  0  0  0  0  0  0  0
   -2.3463   -0.0067    0.0000 C   0  0  0  0  0  0  0  0  0  0  0  0
   -1.0323    0.7500    0.0000 N   0  0  0  0  0  0  0  0  0  0  0  0
   -2.2458    1.6317    0.0000 C   0  0  0  0  0  0  0  0  0  0  0  0
   -2.0890    3.1235    0.0000 C   0  0  0  0  0  0  0  0  0  0  0  0
   -3.3025    4.0051    0.0000 C   0  0  0  0  0  0  0  0  0  0  0  0
   -3.1458    5.4969    0.0000 C   0  0  0  0  0  0  0  0  0  0  0  0
   -4.3593    6.3786    0.0000 C   0  0  0  0  0  0  0  0  0  0  0  0
   -5.7296    5.7685    0.0000 C   0  0  0  0  0  0  0  0  0  0  0  0
   -5.8864    4.2767    0.0000 C   0  0  0  0  0  0  0  0  0  0  0  0
   -4.6729    3.3950    0.0000 C   0  0  0  0  0  0  0  0  0  0  0  0
  1  2  2  0
  2  3  1  0
  3  4  1  0
  4  5  1  0
  5  6  1  0
  6  7  1  0
  7  8  1  0
  2  9  1  0
  9 10  1  0
 10 11  1  0
 11 12  1  0
 12 13  1  0
 13 14  1  0
 14 15  1  0
 14 16  1  0
 16 17  1  0
 17 18  1  0
 18 19  1  0
 19 20  2  0
 20 21  1  0
 21 22  2  0
 22 23  1  0
 23 24  2  0
  8  4  1  0
 15  9  1  0
 24 19  1  0
 16 11  1  0
M  END
>  <Title>  (168) 
idAAMZgen6

$$$$

     RDKit          2D

 23 24  0  0  0  0  0  0  0  0999 V2000
    2.8730   -1.5816    0.0000 C   0  0  0  0  0  0  0  0  0  0  0  0
    1.3858   -1.3858    0.0000 C   0  0  0  0  0  0  0  0  0  0  0  0
    1.5816   -2.8730    0.0000 C   0  0  0  0  0  0  0  0  0  0  0  0
    2.9674   -3.4470    0.0000 C   0  0  0  0  0  0  0  0  0  0  0  0
    3.1632   -4.9342    0.0000 C   0  0  0  0  0  0  0  0  0  0  0  0
    1.9732   -5.8473    0.0000 O   0  0  0  0  0  0  0  0  0  0  0  0
    4.5490   -5.5082    0.0000 C   0  0  0  0  0  0  0  0  0  0  0  0
    4.7448   -6.9954    0.0000 O   0  0  0  0  0  0  0  0  0  0  0  0
    4.1575   -2.5339    0.0000 C   0  0  0  0  0  0  0  0  0  0  0  0
    3.9617   -1.0467    0.0000 O   0  0  0  0  0  0  0  0  0  0  0  0
    5.5433   -3.1079    0.0000 C   0  0  0  0  0  0  0  0  0  0  0  0
    4.8275   -4.4261    0.0000 O   0  0  0  0  0  0  0  0  0  0  0  0
    6.7795   -3.9575    0.0000 C   0  0  0  0  0  0  0  0  0  0  0  0
    7.9695   -3.0444    0.0000 C   0  0  0  0  0  0  0  0  0  0  0  0
    7.4688   -1.6304    0.0000 C   0  0  0  0  0  0  0  0  0  0  0  0
    5.9693   -1.6697    0.0000 C   0  0  0  0  0  0  0  0  0  0  0  0
    1.9598    0.0000    0.0000 C   0  0  0  0  0  0  0  0  0  0  0  0
    1.3858    1.3858    0.0000 C   0  0  0  0  0  0  0  0  0  0  0  0
    0.0000    1.9598    0.0000 C   0  0  0  0  0  0  0  0  0  0  0  0
   -1.3858    1.3858    0.0000 C   0  0  0  0  0  0  0  0  0  0  0  0
   -1.9598    0.0000    0.0000 C   0  0  0  0  0  0  0  0  0  0  0  0
   -1.3858   -1.3858    0.0000 C   0  0  0  0  0  0  0  0  0  0  0  0
   -0.0000   -1.9598    0.0000 C   0  0  0  0  0  0  0  0  0  0  0  0
  1  2  1  0
  2  3  1  0
  3  4  1  0
  4  5  1  0
  5  6  1  0
  5  7  1  0
  7  8  1  0
  4  9  1  0
  9 10  1  0
  9 11  1  0
 11 12  1  0
 11 13  1  0
 13 14  1  0
 14 15  1  0
 15 16  1  0
  2 17  1  0
 17 18  1  0
 18 19  1  0
 19 20  1  0
 20 21  1  0
 21 22  1  0
 22 23  1  0
 23  2  1  0
 16 11  1  0
M  END
>  <Title>  (169) 
idAANAgen6

$$$$

     RDKit          2D

 57 64  0  0  0  0  0  0  0  0999 V2000
   -1.9605    4.6312    0.0000 O   0  0  0  0  0  0  0  0  0  0  0  0
   -3.2463    3.8586    0.0000 C   0  0  0  0  0  0  0  0  0  0  0  0
   -3.4031    2.3668    0.0000 N   0  0  0  0  0  0  0  0  0  0  0  0
   -2.1895    1.4851    0.0000 C   0  0  0  0  0  0  0  0  0  0  0  0
   -0.8192    2.0952    0.0000 C   0  0  0  0  0  0  0  0  0  0  0  0
    0.3943    1.2135    0.0000 C   0  0  0  0  0  0  0  0  0  0  0  0
    1.2760    0.0000    0.0000 C   0  0  0  0  0  0  0  0  0  0  0  0
    0.3943   -1.2135    0.0000 C   0  0  0  0  0  0  0  0  0  0  0  0
   -1.0323   -0.7500    0.0000 C   0  0  0  0  0  0  0  0  0  0  0  0
   -2.3463   -0.0067    0.0000 C   0  0  0  0  0  0  0  0  0  0  0  0
   -1.0323    0.7500    0.0000 N   0  0  0  0  0  0  0  0  0  0  0  0
   -2.2458    1.6317    0.0000 C   0  0  0  0  0  0  0  0  0  0  0  0
   -2.0890    3.1235    0.0000 C   0  0  0  0  0  0  0  0  0  0  0  0
   -3.3025    4.0051    0.0000 C   0  0  0  0  0  0  0  0  0  0  0  0
   -3.1458    5.4969    0.0000 C   0  0  0  0  0  0  0  0  0  0  0  0
   -4.3593    6.3786    0.0000 C   0  0  0  0  0  0  0  0  0  0  0  0
   -5.7296    5.7685    0.0000 C   0  0  0  0  0  0  0  0  0  0  0  0
   -6.9431    6.6502    0.0000 C   0  0  0  0  0  0  0  0  0  0  0  0
   -6.7863    8.1420    0.0000 C   0  0  0  0  0  0  0  0  0  0  0  0
   -7.9999    9.0236    0.0000 C   0  0  0  0  0  0  0  0  0  0  0  0
   -9.3702    8.4135    0.0000 C   0  0  0  0  0  0  0  0  0  0  0  0
   -9.5270    6.9217    0.0000 C   0  0  0  0  0  0  0  0  0  0  0  0
   -8.3134    6.0401    0.0000 N   0  0  0  0  0  0  0  0  0  0  0  0
   -5.8864    4.2767    0.0000 C   0  0  0  0  0  0  0  0  0  0  0  0
   -4.6729    3.3950    0.0000 C   0  0  0  0  0  0  0  0  0  0  0  0
   -4.4598    4.7402    0.0000 C   0  0  0  0  0  0  0  0  0  0  0  0
   -4.3030    6.2320    0.0000 C   0  0  0  0  0  0  0  0  0  0  0  0
   -5.5165    7.1137    0.0000 C   0  0  0  0  0  0  0  0  0  0  0  0
   -6.8869    6.5036    0.0000 C   0  0  0  0  0  0  0  0  0  0  0  0
   -7.0436    5.0118    0.0000 C   0  0  0  0  0  0  0  0  0  0  0  0
   -5.8301    4.1301    0.0000 C   0  0  0  0  0  0  0  0  0  0  0  0
   -5.6733    5.6219    0.0000 C   0  0  0  0  0  0  0  0  0  0  0  0
   -4.4598    4.7402    0.0000 C   0  0  0  0  0  0  0  0  0  0  0  0
   -3.2778    5.6638    0.0000 O   0  0  0  0  0  0  0  0  0  0  0  0
   -4.6166    3.2485    0.0000 N   0  0  0  0  0  0  0  0  0  0  0  0
   -3.4031    2.3668    0.0000 C   0  0  0  0  0  0  0  0  0  0  0  0
   -3.5599    0.8750    0.0000 C   0  0  0  0  0  0  0  0  0  0  0  0
   -2.3463   -0.0067    0.0000 C   0  0  0  0  0  0  0  0  0  0  0  0
   -2.5031   -1.4985    0.0000 C   0  0  0  0  0  0  0  0  0  0  0  0
   -1.2896   -2.3801    0.0000 C   0  0  0  0  0  0  0  0  0  0  0  0
    0.0807   -1.7700    0.0000 C   0  0  0  0  0  0  0  0  0  0  0  0
    0.2375   -0.2783    0.0000 C   0  0  0  0  0  0  0  0  0  0  0  0
   -0.9760    0.6034    0.0000 C   0  0  0  0  0  0  0  0  0  0  0  0
   -2.0328    2.9769    0.0000 C   0  0  0  0  0  0  0  0  0  0  0  0
   -1.6953    4.4384    0.0000 O   0  0  0  0  0  0  0  0  0  0  0  0
   -0.8192    2.0952    0.0000 N   0  0  0  0  0  0  0  0  0  0  0  0
    0.5511    2.7053    0.0000 C   0  0  0  0  0  0  0  0  0  0  0  0
    1.7646    1.8236    0.0000 C   0  0  0  0  0  0  0  0  0  0  0  0
    3.1349    2.4337    0.0000 C   0  0  0  0  0  0  0  0  0  0  0  0
    4.3485    1.5521    0.0000 C   0  0  0  0  0  0  0  0  0  0  0  0
    5.7188    2.1622    0.0000 C   0  0  0  0  0  0  0  0  0  0  0  0
    5.8756    3.6539    0.0000 C   0  0  0  0  0  0  0  0  0  0  0  0
    4.6620    4.5356    0.0000 C   0  0  0  0  0  0  0  0  0  0  0  0
    3.2917    3.9255    0.0000 C   0  0  0  0  0  0  0  0  0  0  0  0
    0.7079    4.1971    0.0000 C   0  0  0  0  0  0  0  0  0  0  0  0
   -0.5056    5.0788    0.0000 O   0  0  0  0  0  0  0  0  0  0  0  0
    2.0782    4.8072    0.0000 O   0  0  0  0  0  0  0  0  0  0  0  0
  1  2  2  0
  2  3  1  0
  3  4  1  0
  4  5  1  0
  5  6  1  0
  6  7  1  0
  7  8  1  0
  8  9  1  0
  9 10  1  0
  9 11  1  0
 11 12  1  0
 12 13  1  0
 13 14  1  0
 14 15  2  0
 15 16  1  0
 16 17  2  0
 17 18  1  0
 18 19  2  0
 19 20  1  0
 20 21  2  0
 21 22  1  0
 22 23  2  0
 17 24  1  0
 24 25  2  0
  2 26  1  0
 26 27  1  0
 27 28  1  0
 28 29  1  0
 29 30  1  0
 30 31  1  0
 30 32  1  0
 32 33  1  0
 33 34  2  0
 33 35  1  0
 35 36  1  0
 36 37  1  0
 37 38  1  0
 38 39  2  0
 39 40  1  0
 40 41  2  0
 41 42  1  0
 42 43  2  0
 36 44  1  0
 44 45  2  0
 44 46  1  0
 46 47  1  0
 47 48  1  0
 48 49  1  0
 49 50  2  0
 50 51  1  0
 51 52  2  0
 52 53  1  0
 53 54  2  0
 47 55  1  0
 55 56  2  0
 55 57  1  0
 10  4  1  0
 25 14  1  0
 31 26  1  0
 43 38  1  0
 54 49  1  0
 11  6  1  0
 23 18  1  0
 32 28  1  0
M  END
>  <Title>  (170) 
idAANBgen6

$$$$

     RDKit          2D

 48 54  0  0  0  0  0  0  0  0999 V2000
   -1.9592   -4.3992    0.0000 C   0  0  0  0  0  0  0  0  0  0  0  0
   -1.8024   -5.8910    0.0000 C   0  0  0  0  0  0  0  0  0  0  0  0
   -1.6457   -7.3828    0.0000 C   0  0  0  0  0  0  0  0  0  0  0  0
   -3.2942   -6.0478    0.0000 C   0  0  0  0  0  0  0  0  0  0  0  0
   -0.3107   -5.7342    0.0000 C   0  0  0  0  0  0  0  0  0  0  0  0
   -0.3892   -7.2322    0.0000 C   0  0  0  0  0  0  0  0  0  0  0  0
    1.0112   -7.7697    0.0000 C   0  0  0  0  0  0  0  0  0  0  0  0
    1.9552   -6.6040    0.0000 C   0  0  0  0  0  0  0  0  0  0  0  0
    1.1382   -5.3460    0.0000 C   0  0  0  0  0  0  0  0  0  0  0  0
    2.5085   -4.7359    0.0000 C   0  0  0  0  0  0  0  0  0  0  0  0
    0.7500   -3.8971    0.0000 C   0  0  0  0  0  0  0  0  0  0  0  0
    1.5000   -2.5981    0.0000 C   0  0  0  0  0  0  0  0  0  0  0  0
    0.7500   -1.2990    0.0000 C   0  0  0  0  0  0  0  0  0  0  0  0
    1.5000    0.0000    0.0000 C   0  0  0  0  0  0  0  0  0  0  0  0
    0.7500    1.2990    0.0000 C   0  0  0  0  0  0  0  0  0  0  0  0
   -0.7500    1.2990    0.0000 C   0  0  0  0  0  0  0  0  0  0  0  0
   -1.5000    0.0000    0.0000 C   0  0  0  0  0  0  0  0  0  0  0  0
    1.7010   -0.7500    0.0000 C   0  0  0  0  0  0  0  0  0  0  0  0
    3.0000   -0.0000    0.0000 C   0  0  0  0  0  0  0  0  0  0  0  0
    2.2500    1.2990    0.0000 C   0  0  0  0  0  0  0  0  0  0  0  0
    2.2500   -1.2990    0.0000 C   0  0  0  0  0  0  0  0  0  0  0  0
   -0.7500   -1.2990    0.0000 C   0  0  0  0  0  0  0  0  0  0  0  0
   -0.6989   -4.2853    0.0000 C   0  0  0  0  0  0  0  0  0  0  0  0
   -1.9979   -3.5353    0.0000 C   0  0  0  0  0  0  0  0  0  0  0  0
   -1.9979   -2.0353    0.0000 O   0  0  0  0  0  0  0  0  0  0  0  0
   -3.2970   -4.2853    0.0000 N   0  0  0  0  0  0  0  0  0  0  0  0
   -4.5960   -3.5353    0.0000 C   0  0  0  0  0  0  0  0  0  0  0  0
   -5.8950   -4.2853    0.0000 C   0  0  0  0  0  0  0  0  0  0  0  0
   -7.1941   -3.5353    0.0000 C   0  0  0  0  0  0  0  0  0  0  0  0
   -7.1941   -2.0353    0.0000 C   0  0  0  0  0  0  0  0  0  0  0  0
   -8.4931   -1.2853    0.0000 C   0  0  0  0  0  0  0  0  0  0  0  0
   -9.7922   -2.0353    0.0000 C   0  0  0  0  0  0  0  0  0  0  0  0
   -9.7922   -3.5353    0.0000 C   0  0  0  0  0  0  0  0  0  0  0  0
   -8.4931   -4.2853    0.0000 C   0  0  0  0  0  0  0  0  0  0  0  0
   -4.5960   -2.0353    0.0000 C   0  0  0  0  0  0  0  0  0  0  0  0
   -3.2970   -1.2853    0.0000 O   0  0  0  0  0  0  0  0  0  0  0  0
   -5.8950   -1.2853    0.0000 N   0  0  0  0  0  0  0  0  0  0  0  0
   -5.8950    0.2147    0.0000 C   0  0  0  0  0  0  0  0  0  0  0  0
   -7.1941    0.9647    0.0000 C   0  0  0  0  0  0  0  0  0  0  0  0
   -7.1941    2.4647    0.0000 C   0  0  0  0  0  0  0  0  0  0  0  0
   -5.8950    3.2147    0.0000 C   0  0  0  0  0  0  0  0  0  0  0  0
   -5.8950    4.7147    0.0000 C   0  0  0  0  0  0  0  0  0  0  0  0
   -7.1941    5.4647    0.0000 C   0  0  0  0  0  0  0  0  0  0  0  0
   -8.4931    4.7147    0.0000 C   0  0  0  0  0  0  0  0  0  0  0  0
   -8.4931    3.2147    0.0000 C   0  0  0  0  0  0  0  0  0  0  0  0
   -4.5960    0.9647    0.0000 C   0  0  0  0  0  0  0  0  0  0  0  0
   -4.5960    2.4647    0.0000 N   0  0  0  0  0  0  0  0  0  0  0  0
   -3.2970    0.2147    0.0000 O   0  0  0  0  0  0  0  0  0  0  0  0
  1  2  1  0
  2  3  1  0
  2  4  1  0
  2  5  1  0
  5  6  1  0
  6  7  1  0
  7  8  1  0
  8  9  1  0
  9 10  1  0
  9 11  1  0
 11 12  1  0
 12 13  1  0
 13 14  1  0
 14 15  1  0
 15 16  1  0
 16 17  1  0
 17 18  1  0
 18 19  1  0
 19 20  1  0
 19 21  1  0
 17 22  1  0
 11 23  1  0
 23 24  1  0
 24 25  2  0
 24 26  1  0
 26 27  1  0
 27 28  1  0
 28 29  1  0
 29 30  2  0
 30 31  1  0
 31 32  2  0
 32 33  1  0
 33 34  2  0
 27 35  1  0
 35 36  2  0
 35 37  1  0
 37 38  1  0
 38 39  1  0
 39 40  1  0
 40 41  2  0
 41 42  1  0
 42 43  2  0
 43 44  1  0
 44 45  2  0
 38 46  1  0
 46 47  1  0
 46 48  2  0
  9  5  1  0
 21 13  1  0
 34 29  1  0
 45 40  1  0
 23  5  1  0
 22 13  1  0
 20 15  1  0
M  END
>  <Title>  (171) 
idAANCgen6

$$$$

     RDKit          2D

 28 31  0  0  0  0  0  0  0  0999 V2000
   -7.1816    1.5755    0.0000 C   0  0  0  0  0  0  0  0  0  0  0  0
   -5.7001    1.8102    0.0000 O   0  0  0  0  0  0  0  0  0  0  0  0
   -4.7561    0.6445    0.0000 C   0  0  0  0  0  0  0  0  0  0  0  0
   -5.2937   -0.7559    0.0000 O   0  0  0  0  0  0  0  0  0  0  0  0
   -3.2746    0.8791    0.0000 N   0  0  0  0  0  0  0  0  0  0  0  0
   -2.9244    2.3377    0.0000 C   0  0  0  0  0  0  0  0  0  0  0  0
   -1.6455    3.1214    0.0000 C   0  0  0  0  0  0  0  0  0  0  0  0
   -0.1869    2.7713    0.0000 C   0  0  0  0  0  0  0  0  0  0  0  0
    0.3943    1.2135    0.0000 C   0  0  0  0  0  0  0  0  0  0  0  0
    1.2760   -0.0000    0.0000 C   0  0  0  0  0  0  0  0  0  0  0  0
    0.3943   -1.2135    0.0000 C   0  0  0  0  0  0  0  0  0  0  0  0
   -1.0323   -0.7500    0.0000 C   0  0  0  0  0  0  0  0  0  0  0  0
   -2.4908   -0.3998    0.0000 C   0  0  0  0  0  0  0  0  0  0  0  0
   -1.0323    0.7500    0.0000 N   0  0  0  0  0  0  0  0  0  0  0  0
   -2.2458    1.6317    0.0000 C   0  0  0  0  0  0  0  0  0  0  0  0
   -2.0890    3.1235    0.0000 C   0  0  0  0  0  0  0  0  0  0  0  0
   -3.3025    4.0051    0.0000 C   0  0  0  0  0  0  0  0  0  0  0  0
   -3.1458    5.4969    0.0000 C   0  0  0  0  0  0  0  0  0  0  0  0
   -4.3593    6.3786    0.0000 C   0  0  0  0  0  0  0  0  0  0  0  0
   -5.7296    5.7685    0.0000 C   0  0  0  0  0  0  0  0  0  0  0  0
   -6.9431    6.6502    0.0000 C   0  0  0  0  0  0  0  0  0  0  0  0
   -6.7863    8.1420    0.0000 C   0  0  0  0  0  0  0  0  0  0  0  0
   -7.9999    9.0236    0.0000 C   0  0  0  0  0  0  0  0  0  0  0  0
   -9.3702    8.4135    0.0000 C   0  0  0  0  0  0  0  0  0  0  0  0
   -9.5270    6.9217    0.0000 C   0  0  0  0  0  0  0  0  0  0  0  0
   -8.3134    6.0401    0.0000 N   0  0  0  0  0  0  0  0  0  0  0  0
   -5.8864    4.2767    0.0000 C   0  0  0  0  0  0  0  0  0  0  0  0
   -4.6729    3.3950    0.0000 C   0  0  0  0  0  0  0  0  0  0  0  0
  1  2  1  0
  2  3  1  0
  3  4  2  0
  3  5  1  0
  5  6  1  0
  6  7  1  0
  7  8  1  0
  8  9  1  0
  9 10  1  0
 10 11  1  0
 11 12  1  0
 12 13  1  0
 12 14  1  0
 14 15  1  0
 15 16  1  0
 16 17  1  0
 17 18  2  0
 18 19  1  0
 19 20  2  0
 20 21  1  0
 21 22  2  0
 22 23  1  0
 23 24  2  0
 24 25  1  0
 25 26  2  0
 20 27  1  0
 27 28  2  0
 13  5  1  0
 28 17  1  0
 14  9  1  0
 26 21  1  0
M  END
>  <Title>  (172) 
idAANDgen6

$$$$

     RDKit          2D

 34 37  0  0  0  0  0  0  0  0999 V2000
   -8.0970   -1.3822    0.0000 C   0  0  0  0  0  0  0  0  0  0  0  0
   -7.3470   -2.6813    0.0000 C   0  0  0  0  0  0  0  0  0  0  0  0
   -6.2474   -1.6610    0.0000 C   0  0  0  0  0  0  0  0  0  0  0  0
   -8.7804   -3.1234    0.0000 C   0  0  0  0  0  0  0  0  0  0  0  0
   -9.3284   -4.5197    0.0000 C   0  0  0  0  0  0  0  0  0  0  0  0
   -8.5784   -5.8188    0.0000 C   0  0  0  0  0  0  0  0  0  0  0  0
   -7.0951   -6.0423    0.0000 C   0  0  0  0  0  0  0  0  0  0  0  0
   -5.9955   -5.0221    0.0000 C   0  0  0  0  0  0  0  0  0  0  0  0
   -6.1076   -3.5262    0.0000 C   0  0  0  0  0  0  0  0  0  0  0  0
   -4.8086   -2.7762    0.0000 C   0  0  0  0  0  0  0  0  0  0  0  0
   -3.6595   -3.7404    0.0000 C   0  0  0  0  0  0  0  0  0  0  0  0
   -2.1595   -3.7404    0.0000 C   0  0  0  0  0  0  0  0  0  0  0  0
   -1.0105   -2.7762    0.0000 C   0  0  0  0  0  0  0  0  0  0  0  0
   -0.7500   -1.2990    0.0000 C   0  0  0  0  0  0  0  0  0  0  0  0
    0.2142   -2.4481    0.0000 C   0  0  0  0  0  0  0  0  0  0  0  0
    0.7500   -1.2990    0.0000 C   0  0  0  0  0  0  0  0  0  0  0  0
    1.5000   -2.5981    0.0000 C   0  0  0  0  0  0  0  0  0  0  0  0
    3.0000   -2.5981    0.0000 C   0  0  0  0  0  0  0  0  0  0  0  0
    3.7500   -3.8971    0.0000 C   0  0  0  0  0  0  0  0  0  0  0  0
    5.2418   -4.0539    0.0000 C   0  0  0  0  0  0  0  0  0  0  0  0
    5.5537   -5.5211    0.0000 C   0  0  0  0  0  0  0  0  0  0  0  0
    4.2546   -6.2711    0.0000 C   0  0  0  0  0  0  0  0  0  0  0  0
    3.1399   -5.2674    0.0000 C   0  0  0  0  0  0  0  0  0  0  0  0
    1.5000    0.0000    0.0000 C   0  0  0  0  0  0  0  0  0  0  0  0
    0.7500    1.2990    0.0000 C   0  0  0  0  0  0  0  0  0  0  0  0
   -0.7500    1.2990    0.0000 C   0  0  0  0  0  0  0  0  0  0  0  0
   -1.5000    0.0000    0.0000 C   0  0  0  0  0  0  0  0  0  0  0  0
   -2.9095    0.5130    0.0000 N   0  0  0  0  0  0  0  0  0  0  0  0
   -2.9095    2.0130    0.0000 C   0  0  0  0  0  0  0  0  0  0  0  0
   -4.4095    2.0130    0.0000 C   0  0  0  0  0  0  0  0  0  0  0  0
   -1.4095    2.0130    0.0000 C   0  0  0  0  0  0  0  0  0  0  0  0
   -2.9095    3.5130    0.0000 C   0  0  0  0  0  0  0  0  0  0  0  0
   -4.3191    0.0000    0.0000 C   0  0  0  0  0  0  0  0  0  0  0  0
   -5.0691   -1.2990    0.0000 C   0  0  0  0  0  0  0  0  0  0  0  0
  1  2  1  0
  2  3  1  0
  2  4  1  0
  4  5  1  0
  5  6  1  0
  6  7  1  0
  7  8  1  0
  8  9  1  0
  9 10  1  0
 10 11  1  0
 11 12  1  0
 12 13  1  0
 13 14  1  0
 14 15  1  0
 14 16  1  0
 16 17  1  0
 17 18  1  0
 18 19  1  0
 19 20  1  0
 20 21  1  0
 21 22  1  0
 22 23  1  0
 16 24  1  0
 24 25  1  0
 25 26  1  0
 26 27  1  0
 27 28  1  0
 28 29  1  0
 29 30  1  0
 29 31  1  0
 29 32  1  0
 28 33  1  0
 33 34  1  0
  9  2  1  0
 34 10  1  0
 27 14  1  0
 23 19  1  0
M  END
>  <Title>  (173) 
idAANEgen6

$$$$

     RDKit          2D

 57 62  0  0  0  0  0  0  0  0999 V2000
    2.9888   -2.4152    0.0000 O   0  0  0  0  0  0  0  0  0  0  0  0
    1.5000   -2.5981    0.0000 C   0  0  0  0  0  0  0  0  0  0  0  0
    0.7500   -3.8971    0.0000 N   0  0  0  0  0  0  0  0  0  0  0  0
    1.5000   -5.1962    0.0000 C   0  0  0  0  0  0  0  0  0  0  0  0
    0.7500   -6.4952    0.0000 C   0  0  0  0  0  0  0  0  0  0  0  0
    1.5000   -7.7942    0.0000 C   0  0  0  0  0  0  0  0  0  0  0  0
    0.7500   -9.0933    0.0000 C   0  0  0  0  0  0  0  0  0  0  0  0
    1.5000  -10.3923    0.0000 C   0  0  0  0  0  0  0  0  0  0  0  0
    3.0000  -10.3923    0.0000 C   0  0  0  0  0  0  0  0  0  0  0  0
    3.7500   -9.0933    0.0000 C   0  0  0  0  0  0  0  0  0  0  0  0
    3.0000   -7.7942    0.0000 C   0  0  0  0  0  0  0  0  0  0  0  0
    3.0000   -5.1962    0.0000 C   0  0  0  0  0  0  0  0  0  0  0  0
    3.7500   -3.8971    0.0000 O   0  0  0  0  0  0  0  0  0  0  0  0
    3.7500   -6.4952    0.0000 O   0  0  0  0  0  0  0  0  0  0  0  0
    0.7500   -1.2990    0.0000 C   0  0  0  0  0  0  0  0  0  0  0  0
    1.5000    0.0000    0.0000 C   0  0  0  0  0  0  0  0  0  0  0  0
    0.7500    1.2990    0.0000 C   0  0  0  0  0  0  0  0  0  0  0  0
   -0.7500    1.2990    0.0000 C   0  0  0  0  0  0  0  0  0  0  0  0
   -1.5000    0.0000    0.0000 C   0  0  0  0  0  0  0  0  0  0  0  0
   -0.7500   -1.2990    0.0000 C   0  0  0  0  0  0  0  0  0  0  0  0
   -0.0000   -0.0000    0.0000 C   0  0  0  0  0  0  0  0  0  0  0  0
    0.7500   -1.2990    0.0000 C   0  0  0  0  0  0  0  0  0  0  0  0
    2.2500   -1.2990    0.0000 O   0  0  0  0  0  0  0  0  0  0  0  0
   -0.0000   -2.5981    0.0000 N   0  0  0  0  0  0  0  0  0  0  0  0
    0.7500   -3.8971    0.0000 C   0  0  0  0  0  0  0  0  0  0  0  0
   -0.0000   -5.1962    0.0000 C   0  0  0  0  0  0  0  0  0  0  0  0
    0.7500   -6.4952    0.0000 C   0  0  0  0  0  0  0  0  0  0  0  0
   -0.0000   -7.7942    0.0000 C   0  0  0  0  0  0  0  0  0  0  0  0
    0.7500   -9.0933    0.0000 C   0  0  0  0  0  0  0  0  0  0  0  0
    2.2500   -9.0933    0.0000 C   0  0  0  0  0  0  0  0  0  0  0  0
    3.0000   -7.7942    0.0000 C   0  0  0  0  0  0  0  0  0  0  0  0
    2.2500   -6.4952    0.0000 C   0  0  0  0  0  0  0  0  0  0  0  0
    2.2500   -3.8971    0.0000 C   0  0  0  0  0  0  0  0  0  0  0  0
    3.1528   -2.6992    0.0000 O   0  0  0  0  0  0  0  0  0  0  0  0
    3.0000   -5.1962    0.0000 N   0  0  0  0  0  0  0  0  0  0  0  0
    4.5000   -5.1962    0.0000 C   0  0  0  0  0  0  0  0  0  0  0  0
    5.2500   -6.4952    0.0000 C   0  0  0  0  0  0  0  0  0  0  0  0
    6.7500   -6.4952    0.0000 C   0  0  0  0  0  0  0  0  0  0  0  0
    7.5000   -7.7942    0.0000 C   0  0  0  0  0  0  0  0  0  0  0  0
    9.0000   -7.7942    0.0000 C   0  0  0  0  0  0  0  0  0  0  0  0
    9.7500   -6.4952    0.0000 C   0  0  0  0  0  0  0  0  0  0  0  0
    9.0000   -5.1962    0.0000 C   0  0  0  0  0  0  0  0  0  0  0  0
    7.5000   -5.1962    0.0000 C   0  0  0  0  0  0  0  0  0  0  0  0
    5.2500   -3.8971    0.0000 C   0  0  0  0  0  0  0  0  0  0  0  0
    4.5000   -2.5981    0.0000 O   0  0  0  0  0  0  0  0  0  0  0  0
    6.7500   -3.8971    0.0000 N   0  0  0  0  0  0  0  0  0  0  0  0
    7.5000   -2.5981    0.0000 C   0  0  0  0  0  0  0  0  0  0  0  0
    9.0000   -2.5981    0.0000 C   0  0  0  0  0  0  0  0  0  0  0  0
    9.7500   -1.2990    0.0000 C   0  0  0  0  0  0  0  0  0  0  0  0
   11.2500   -1.2990    0.0000 C   0  0  0  0  0  0  0  0  0  0  0  0
   12.0000   -0.0000    0.0000 C   0  0  0  0  0  0  0  0  0  0  0  0
   11.2500    1.2990    0.0000 C   0  0  0  0  0  0  0  0  0  0  0  0
    9.7500    1.2990    0.0000 C   0  0  0  0  0  0  0  0  0  0  0  0
    9.0000   -0.0000    0.0000 C   0  0  0  0  0  0  0  0  0  0  0  0
    6.7500   -1.2990    0.0000 C   0  0  0  0  0  0  0  0  0  0  0  0
    5.2500   -1.2990    0.0000 O   0  0  0  0  0  0  0  0  0  0  0  0
    7.5000   -0.0000    0.0000 O   0  0  0  0  0  0  0  0  0  0  0  0
  1  2  2  0
  2  3  1  0
  3  4  1  0
  4  5  1  0
  5  6  1  0
  6  7  2  0
  7  8  1  0
  8  9  2  0
  9 10  1  0
 10 11  2  0
  4 12  1  0
 12 13  2  0
 12 14  1  0
  2 15  1  0
 15 16  1  0
 16 17  1  0
 17 18  1  0
 18 19  1  0
 19 20  1  0
 19 21  1  0
 21 22  1  0
 22 23  2  0
 22 24  1  0
 24 25  1  0
 25 26  1  0
 26 27  1  0
 27 28  2  0
 28 29  1  0
 29 30  2  0
 30 31  1  0
 31 32  2  0
 25 33  1  0
 33 34  2  0
 33 35  1  0
 35 36  1  0
 36 37  1  0
 37 38  1  0
 38 39  2  0
 39 40  1  0
 40 41  2  0
 41 42  1  0
 42 43  2  0
 36 44  1  0
 44 45  2  0
 44 46  1  0
 46 47  1  0
 47 48  1  0
 48 49  1  0
 49 50  2  0
 50 51  1  0
 51 52  2  0
 52 53  1  0
 53 54  2  0
 47 55  1  0
 55 56  2  0
 55 57  1  0
 11  6  1  0
 20 15  1  0
 32 27  1  0
 43 38  1  0
 54 49  1  0
 21 17  1  0
M  END
>  <Title>  (174) 
idAANFgen6

$$$$

     RDKit          2D

 62 69  0  0  0  0  0  0  0  0999 V2000
   -1.9605    4.6312    0.0000 O   0  0  0  0  0  0  0  0  0  0  0  0
   -3.2463    3.8586    0.0000 C   0  0  0  0  0  0  0  0  0  0  0  0
   -3.4031    2.3668    0.0000 N   0  0  0  0  0  0  0  0  0  0  0  0
   -2.1895    1.4851    0.0000 C   0  0  0  0  0  0  0  0  0  0  0  0
   -0.8192    2.0952    0.0000 C   0  0  0  0  0  0  0  0  0  0  0  0
    0.3943    1.2135    0.0000 C   0  0  0  0  0  0  0  0  0  0  0  0
    1.2760    0.0000    0.0000 C   0  0  0  0  0  0  0  0  0  0  0  0
    0.3943   -1.2135    0.0000 C   0  0  0  0  0  0  0  0  0  0  0  0
   -1.0323   -0.7500    0.0000 C   0  0  0  0  0  0  0  0  0  0  0  0
   -2.3463   -0.0067    0.0000 C   0  0  0  0  0  0  0  0  0  0  0  0
   -1.0323    0.7500    0.0000 N   0  0  0  0  0  0  0  0  0  0  0  0
   -2.2458    1.6317    0.0000 C   0  0  0  0  0  0  0  0  0  0  0  0
   -2.0890    3.1235    0.0000 C   0  0  0  0  0  0  0  0  0  0  0  0
   -3.3025    4.0051    0.0000 C   0  0  0  0  0  0  0  0  0  0  0  0
   -3.1458    5.4969    0.0000 C   0  0  0  0  0  0  0  0  0  0  0  0
   -4.3593    6.3786    0.0000 C   0  0  0  0  0  0  0  0  0  0  0  0
   -5.7296    5.7685    0.0000 C   0  0  0  0  0  0  0  0  0  0  0  0
   -5.8864    4.2767    0.0000 C   0  0  0  0  0  0  0  0  0  0  0  0
   -4.6729    3.3950    0.0000 N   0  0  0  0  0  0  0  0  0  0  0  0
   -4.4598    4.7402    0.0000 C   0  0  0  0  0  0  0  0  0  0  0  0
   -4.3030    6.2320    0.0000 C   0  0  0  0  0  0  0  0  0  0  0  0
   -5.5165    7.1137    0.0000 C   0  0  0  0  0  0  0  0  0  0  0  0
   -6.8869    6.5036    0.0000 C   0  0  0  0  0  0  0  0  0  0  0  0
   -7.0436    5.0118    0.0000 C   0  0  0  0  0  0  0  0  0  0  0  0
   -5.8301    4.1301    0.0000 C   0  0  0  0  0  0  0  0  0  0  0  0
   -5.6733    5.6219    0.0000 C   0  0  0  0  0  0  0  0  0  0  0  0
   -4.4598    4.7402    0.0000 C   0  0  0  0  0  0  0  0  0  0  0  0
   -3.2778    5.6638    0.0000 O   0  0  0  0  0  0  0  0  0  0  0  0
   -4.6166    3.2485    0.0000 N   0  0  0  0  0  0  0  0  0  0  0  0
   -3.4031    2.3668    0.0000 C   0  0  0  0  0  0  0  0  0  0  0  0
   -3.5599    0.8750    0.0000 C   0  0  0  0  0  0  0  0  0  0  0  0
   -2.3463   -0.0067    0.0000 C   0  0  0  0  0  0  0  0  0  0  0  0
   -2.5031   -1.4985    0.0000 C   0  0  0  0  0  0  0  0  0  0  0  0
   -1.2896   -2.3801    0.0000 C   0  0  0  0  0  0  0  0  0  0  0  0
    0.0807   -1.7700    0.0000 C   0  0  0  0  0  0  0  0  0  0  0  0
    0.2375   -0.2783    0.0000 C   0  0  0  0  0  0  0  0  0  0  0  0
   -0.9760    0.6034    0.0000 C   0  0  0  0  0  0  0  0  0  0  0  0
   -2.0328    2.9769    0.0000 C   0  0  0  0  0  0  0  0  0  0  0  0
   -1.6953    4.4384    0.0000 O   0  0  0  0  0  0  0  0  0  0  0  0
   -0.8192    2.0952    0.0000 N   0  0  0  0  0  0  0  0  0  0  0  0
    0.5511    2.7053    0.0000 C   0  0  0  0  0  0  0  0  0  0  0  0
    1.7646    1.8236    0.0000 C   0  0  0  0  0  0  0  0  0  0  0  0
    3.1349    2.4337    0.0000 C   0  0  0  0  0  0  0  0  0  0  0  0
    4.3485    1.5521    0.0000 C   0  0  0  0  0  0  0  0  0  0  0  0
    5.7188    2.1622    0.0000 C   0  0  0  0  0  0  0  0  0  0  0  0
    5.8756    3.6539    0.0000 C   0  0  0  0  0  0  0  0  0  0  0  0
    4.6620    4.5356    0.0000 C   0  0  0  0  0  0  0  0  0  0  0  0
    3.2917    3.9255    0.0000 C   0  0  0  0  0  0  0  0  0  0  0  0
    0.7079    4.1971    0.0000 C   0  0  0  0  0  0  0  0  0  0  0  0
   -0.5056    5.0788    0.0000 O   0  0  0  0  0  0  0  0  0  0  0  0
    2.0782    4.8072    0.0000 N   0  0  0  0  0  0  0  0  0  0  0  0
    2.2350    6.2990    0.0000 C   0  0  0  0  0  0  0  0  0  0  0  0
    3.6053    6.9091    0.0000 C   0  0  0  0  0  0  0  0  0  0  0  0
    3.7621    8.4009    0.0000 C   0  0  0  0  0  0  0  0  0  0  0  0
    5.1324    9.0110    0.0000 C   0  0  0  0  0  0  0  0  0  0  0  0
    5.2892   10.5028    0.0000 C   0  0  0  0  0  0  0  0  0  0  0  0
    4.0757   11.3844    0.0000 C   0  0  0  0  0  0  0  0  0  0  0  0
    2.7054   10.7743    0.0000 C   0  0  0  0  0  0  0  0  0  0  0  0
    2.5486    9.2825    0.0000 C   0  0  0  0  0  0  0  0  0  0  0  0
    1.0215    7.1807    0.0000 C   0  0  0  0  0  0  0  0  0  0  0  0
   -0.3488    6.5706    0.0000 O   0  0  0  0  0  0  0  0  0  0  0  0
    1.1783    8.6724    0.0000 O   0  0  0  0  0  0  0  0  0  0  0  0
  1  2  2  0
  2  3  1  0
  3  4  1  0
  4  5  1  0
  5  6  1  0
  6  7  1  0
  7  8  1  0
  8  9  1  0
  9 10  1  0
  9 11  1  0
 11 12  1  0
 12 13  1  0
 13 14  1  0
 14 15  2  0
 15 16  1  0
 16 17  2  0
 17 18  1  0
 18 19  2  0
  2 20  1  0
 20 21  1  0
 21 22  1  0
 22 23  1  0
 23 24  1  0
 24 25  1  0
 24 26  1  0
 26 27  1  0
 27 28  2  0
 27 29  1  0
 29 30  1  0
 30 31  1  0
 31 32  1  0
 32 33  2  0
 33 34  1  0
 34 35  2  0
 35 36  1  0
 36 37  2  0
 30 38  1  0
 38 39  2  0
 38 40  1  0
 40 41  1  0
 41 42  1  0
 42 43  1  0
 43 44  2  0
 44 45  1  0
 45 46  2  0
 46 47  1  0
 47 48  2  0
 41 49  1  0
 49 50  2  0
 49 51  1  0
 51 52  1  0
 52 53  1  0
 53 54  1  0
 54 55  2  0
 55 56  1  0
 56 57  2  0
 57 58  1  0
 58 59  2  0
 52 60  1  0
 60 61  2  0
 60 62  1  0
 10  4  1  0
 19 14  1  0
 25 20  1  0
 37 32  1  0
 48 43  1  0
 59 54  1  0
 11  6  1  0
 26 22  1  0
M  END
>  <Title>  (175) 
idAANGgen6

$$$$

     RDKit          2D

 10 11  0  0  0  0  0  0  0  0999 V2000
    2.9095   -2.0850    0.0000 C   0  0  0  0  0  0  0  0  0  0  0  0
    1.5000   -2.5981    0.0000 C   0  0  0  0  0  0  0  0  0  0  0  0
    0.7500   -1.2990    0.0000 C   0  0  0  0  0  0  0  0  0  0  0  0
    1.5000    0.0000    0.0000 C   0  0  0  0  0  0  0  0  0  0  0  0
    0.7500    1.2990    0.0000 C   0  0  0  0  0  0  0  0  0  0  0  0
   -0.7500    1.2990    0.0000 C   0  0  0  0  0  0  0  0  0  0  0  0
   -1.5000    0.0000    0.0000 C   0  0  0  0  0  0  0  0  0  0  0  0
   -0.7500   -1.2990    0.0000 N   0  0  0  0  0  0  0  0  0  0  0  0
    1.7605   -4.0753    0.0000 C   0  0  0  0  0  0  0  0  0  0  0  0
    0.3509   -3.5623    0.0000 C   0  0  0  0  0  0  0  0  0  0  0  0
  1  2  1  0
  2  3  1  0
  3  4  2  0
  4  5  1  0
  5  6  2  0
  6  7  1  0
  7  8  2  0
  2  9  1  0
  9 10  1  0
 10  2  1  0
  8  3  1  0
M  END
>  <Title>  (176) 
idAANHgen6

$$$$

     RDKit          2D

 18 18  0  0  0  0  0  0  0  0999 V2000
    5.7098   -1.2990    0.0000 C   0  0  0  0  0  0  0  0  0  0  0  0
    4.2098   -1.2990    0.0000 C   0  0  0  0  0  0  0  0  0  0  0  0
    3.4598   -2.5981    0.0000 C   0  0  0  0  0  0  0  0  0  0  0  0
    3.4598    0.0000    0.0000 C   0  0  0  0  0  0  0  0  0  0  0  0
    1.9598    0.0000    0.0000 C   0  0  0  0  0  0  0  0  0  0  0  0
    1.3858   -1.3858    0.0000 C   0  0  0  0  0  0  0  0  0  0  0  0
   -0.0000   -1.9598    0.0000 C   0  0  0  0  0  0  0  0  0  0  0  0
   -1.3858   -1.3858    0.0000 C   0  0  0  0  0  0  0  0  0  0  0  0
   -1.9598    0.0000    0.0000 C   0  0  0  0  0  0  0  0  0  0  0  0
   -1.3858    1.3858    0.0000 C   0  0  0  0  0  0  0  0  0  0  0  0
   -2.8730    1.5816    0.0000 C   0  0  0  0  0  0  0  0  0  0  0  0
   -1.7614    2.8380    0.0000 C   0  0  0  0  0  0  0  0  0  0  0  0
    0.0000    1.9598    0.0000 C   0  0  0  0  0  0  0  0  0  0  0  0
    0.0000    3.4598    0.0000 C   0  0  0  0  0  0  0  0  0  0  0  0
   -1.4888    3.6427    0.0000 C   0  0  0  0  0  0  0  0  0  0  0  0
    1.5000    3.4598    0.0000 C   0  0  0  0  0  0  0  0  0  0  0  0
    0.0000    4.9598    0.0000 C   0  0  0  0  0  0  0  0  0  0  0  0
    1.3858    1.3858    0.0000 C   0  0  0  0  0  0  0  0  0  0  0  0
  1  2  1  0
  2  3  1  0
  2  4  1  0
  4  5  1  0
  5  6  1  0
  6  7  1  0
  7  8  1  0
  8  9  1  0
  9 10  1  0
 10 11  1  0
 10 12  1  0
 10 13  1  0
 13 14  1  0
 14 15  1  0
 14 16  1  0
 14 17  1  0
 13 18  1  0
 18  5  1  0
M  END
>  <Title>  (177) 
idAANIgen6

$$$$

     RDKit          2D

 36 41  0  0  0  0  0  0  0  0999 V2000
   -4.5000   -2.5981    0.0000 O   0  0  0  0  0  0  0  0  0  0  0  0
   -3.7500   -3.8971    0.0000 C   0  0  0  0  0  0  0  0  0  0  0  0
   -2.2500   -3.8971    0.0000 N   0  0  0  0  0  0  0  0  0  0  0  0
   -1.5000   -2.5981    0.0000 C   0  0  0  0  0  0  0  0  0  0  0  0
   -0.0000   -2.5981    0.0000 C   0  0  0  0  0  0  0  0  0  0  0  0
    0.7500   -1.2990    0.0000 C   0  0  0  0  0  0  0  0  0  0  0  0
    1.5000    0.0000    0.0000 C   0  0  0  0  0  0  0  0  0  0  0  0
    0.7500    1.2990    0.0000 C   0  0  0  0  0  0  0  0  0  0  0  0
   -0.7500    1.2990    0.0000 C   0  0  0  0  0  0  0  0  0  0  0  0
   -1.5000    0.0000    0.0000 C   0  0  0  0  0  0  0  0  0  0  0  0
   -2.2500   -1.2990    0.0000 C   0  0  0  0  0  0  0  0  0  0  0  0
   -0.7500   -1.2990    0.0000 N   0  0  0  0  0  0  0  0  0  0  0  0
   -1.5000   -2.5981    0.0000 C   0  0  0  0  0  0  0  0  0  0  0  0
   -3.0000   -2.5981    0.0000 C   0  0  0  0  0  0  0  0  0  0  0  0
   -3.7500   -3.8971    0.0000 C   0  0  0  0  0  0  0  0  0  0  0  0
   -5.2500   -3.8971    0.0000 C   0  0  0  0  0  0  0  0  0  0  0  0
   -6.0000   -5.1962    0.0000 C   0  0  0  0  0  0  0  0  0  0  0  0
   -5.2500   -6.4952    0.0000 C   0  0  0  0  0  0  0  0  0  0  0  0
   -3.7500   -6.4952    0.0000 C   0  0  0  0  0  0  0  0  0  0  0  0
   -3.0000   -5.1962    0.0000 C   0  0  0  0  0  0  0  0  0  0  0  0
   -4.5000   -5.1962    0.0000 C   0  0  0  0  0  0  0  0  0  0  0  0
   -6.0000   -5.1962    0.0000 C   0  0  0  0  0  0  0  0  0  0  0  0
   -6.7500   -6.4952    0.0000 C   0  0  0  0  0  0  0  0  0  0  0  0
   -7.0619   -7.9624    0.0000 C   0  0  0  0  0  0  0  0  0  0  0  0
   -5.7628   -8.7124    0.0000 C   0  0  0  0  0  0  0  0  0  0  0  0
   -4.6481   -7.7087    0.0000 C   0  0  0  0  0  0  0  0  0  0  0  0
   -3.7500   -6.4952    0.0000 C   0  0  0  0  0  0  0  0  0  0  0  0
   -5.2582   -6.3384    0.0000 N   0  0  0  0  0  0  0  0  0  0  0  0
   -4.5082   -5.0394    0.0000 C   0  0  0  0  0  0  0  0  0  0  0  0
   -3.0082   -5.0394    0.0000 C   0  0  0  0  0  0  0  0  0  0  0  0
   -2.2582   -3.7403    0.0000 C   0  0  0  0  0  0  0  0  0  0  0  0
   -0.7582   -3.7403    0.0000 C   0  0  0  0  0  0  0  0  0  0  0  0
   -0.0082   -2.4413    0.0000 C   0  0  0  0  0  0  0  0  0  0  0  0
   -0.7582   -1.1422    0.0000 C   0  0  0  0  0  0  0  0  0  0  0  0
   -2.2582   -1.1422    0.0000 C   0  0  0  0  0  0  0  0  0  0  0  0
   -3.0082   -2.4413    0.0000 C   0  0  0  0  0  0  0  0  0  0  0  0
  1  2  2  0
  2  3  1  0
  3  4  1  0
  4  5  1  0
  5  6  1  0
  6  7  1  0
  7  8  1  0
  8  9  1  0
  9 10  1  0
 10 11  1  0
 10 12  1  0
 12 13  1  0
 13 14  1  0
 14 15  1  0
 15 16  2  0
 16 17  1  0
 17 18  2  0
 18 19  1  0
 19 20  2  0
  2 21  1  0
 21 22  1  0
 22 23  1  0
 23 24  1  0
 24 25  1  0
 25 26  1  0
 26 27  1  0
 26 28  1  0
 28 29  1  0
 29 30  1  0
 30 31  1  0
 31 32  2  0
 32 33  1  0
 33 34  2  0
 34 35  1  0
 35 36  2  0
 11  4  1  0
 20 15  1  0
 27 21  1  0
 36 31  1  0
 12  6  1  0
 28 23  1  0
M  END
>  <Title>  (178) 
idAANJgen6

$$$$

     RDKit          2D

 69 73  0  0  0  0  0  0  0  0999 V2000
    4.6727    2.6988    0.0000 C   0  0  0  0  0  0  0  0  0  0  0  0
    3.8060    1.4745    0.0000 C   0  0  0  0  0  0  0  0  0  0  0  0
    5.2713    1.1536    0.0000 C   0  0  0  0  0  0  0  0  0  0  0  0
    5.7260   -0.2759    0.0000 C   0  0  0  0  0  0  0  0  0  0  0  0
    4.7155   -1.3844    0.0000 C   0  0  0  0  0  0  0  0  0  0  0  0
    5.1702   -2.8138    0.0000 C   0  0  0  0  0  0  0  0  0  0  0  0
    4.1597   -3.9223    0.0000 O   0  0  0  0  0  0  0  0  0  0  0  0
    6.6355   -3.1347    0.0000 C   0  0  0  0  0  0  0  0  0  0  0  0
    6.8015   -1.6439    0.0000 O   0  0  0  0  0  0  0  0  0  0  0  0
    8.1355   -3.1439    0.0000 C   0  0  0  0  0  0  0  0  0  0  0  0
    8.5902   -4.5733    0.0000 C   0  0  0  0  0  0  0  0  0  0  0  0
    7.3712   -5.4475    0.0000 C   0  0  0  0  0  0  0  0  0  0  0  0
    6.1632   -4.5584    0.0000 C   0  0  0  0  0  0  0  0  0  0  0  0
    7.1913   -0.5968    0.0000 C   0  0  0  0  0  0  0  0  0  0  0  0
    8.2018    0.5118    0.0000 O   0  0  0  0  0  0  0  0  0  0  0  0
    7.6460   -2.0262    0.0000 C   0  0  0  0  0  0  0  0  0  0  0  0
    9.1113   -2.3471    0.0000 O   0  0  0  0  0  0  0  0  0  0  0  0
    4.0816    0.0000    0.0000 C   0  0  0  0  0  0  0  0  0  0  0  0
    3.8060   -1.4745    0.0000 C   0  0  0  0  0  0  0  0  0  0  0  0
    3.0164   -2.7498    0.0000 C   0  0  0  0  0  0  0  0  0  0  0  0
    1.8193   -3.6537    0.0000 C   0  0  0  0  0  0  0  0  0  0  0  0
    0.3766   -4.0642    0.0000 C   0  0  0  0  0  0  0  0  0  0  0  0
   -1.1170   -3.9258    0.0000 C   0  0  0  0  0  0  0  0  0  0  0  0
   -2.4597   -3.2572    0.0000 C   0  0  0  0  0  0  0  0  0  0  0  0
   -3.4703   -2.1487    0.0000 C   0  0  0  0  0  0  0  0  0  0  0  0
   -4.0121   -0.7500    0.0000 C   0  0  0  0  0  0  0  0  0  0  0  0
   -4.0121    0.7500    0.0000 C   0  0  0  0  0  0  0  0  0  0  0  0
   -3.4703    2.1487    0.0000 C   0  0  0  0  0  0  0  0  0  0  0  0
   -2.4597    3.2572    0.0000 C   0  0  0  0  0  0  0  0  0  0  0  0
   -1.1170    3.9258    0.0000 C   0  0  0  0  0  0  0  0  0  0  0  0
    0.3766    4.0642    0.0000 C   0  0  0  0  0  0  0  0  0  0  0  0
    1.8193    3.6537    0.0000 C   0  0  0  0  0  0  0  0  0  0  0  0
    3.0164    2.7498    0.0000 C   0  0  0  0  0  0  0  0  0  0  0  0
    4.1249    3.7603    0.0000 C   0  0  0  0  0  0  0  0  0  0  0  0
    5.5543    3.3056    0.0000 C   0  0  0  0  0  0  0  0  0  0  0  0
    5.8752    1.8403    0.0000 O   0  0  0  0  0  0  0  0  0  0  0  0
    6.6628    4.3161    0.0000 C   0  0  0  0  0  0  0  0  0  0  0  0
    8.0922    3.8614    0.0000 C   0  0  0  0  0  0  0  0  0  0  0  0
    9.2007    4.8720    0.0000 C   0  0  0  0  0  0  0  0  0  0  0  0
   10.6301    4.4172    0.0000 C   0  0  0  0  0  0  0  0  0  0  0  0
   11.7387    5.4278    0.0000 C   0  0  0  0  0  0  0  0  0  0  0  0
   11.4178    6.8930    0.0000 C   0  0  0  0  0  0  0  0  0  0  0  0
    9.9884    7.3478    0.0000 C   0  0  0  0  0  0  0  0  0  0  0  0
    8.8798    6.3372    0.0000 C   0  0  0  0  0  0  0  0  0  0  0  0
    6.3419    5.7814    0.0000 C   0  0  0  0  0  0  0  0  0  0  0  0
    4.9125    6.2361    0.0000 O   0  0  0  0  0  0  0  0  0  0  0  0
    7.4504    6.7920    0.0000 N   0  0  0  0  0  0  0  0  0  0  0  0
    7.1295    8.2572    0.0000 C   0  0  0  0  0  0  0  0  0  0  0  0
    8.2380    9.2678    0.0000 C   0  0  0  0  0  0  0  0  0  0  0  0
    7.9171   10.7330    0.0000 C   0  0  0  0  0  0  0  0  0  0  0  0
    9.0257   11.7436    0.0000 C   0  0  0  0  0  0  0  0  0  0  0  0
    8.7048   13.2089    0.0000 C   0  0  0  0  0  0  0  0  0  0  0  0
    7.2753   13.6636    0.0000 C   0  0  0  0  0  0  0  0  0  0  0  0
    6.1668   12.6530    0.0000 C   0  0  0  0  0  0  0  0  0  0  0  0
    6.4877   11.1878    0.0000 C   0  0  0  0  0  0  0  0  0  0  0  0
    5.7001    8.7120    0.0000 C   0  0  0  0  0  0  0  0  0  0  0  0
    4.5916    7.7014    0.0000 O   0  0  0  0  0  0  0  0  0  0  0  0
    5.3792   10.1772    0.0000 N   0  0  0  0  0  0  0  0  0  0  0  0
    3.9498   10.6320    0.0000 C   0  0  0  0  0  0  0  0  0  0  0  0
    3.6289   12.0972    0.0000 C   0  0  0  0  0  0  0  0  0  0  0  0
    2.1995   12.5520    0.0000 C   0  0  0  0  0  0  0  0  0  0  0  0
    1.8786   14.0172    0.0000 C   0  0  0  0  0  0  0  0  0  0  0  0
    0.4492   14.4720    0.0000 C   0  0  0  0  0  0  0  0  0  0  0  0
   -0.6593   13.4614    0.0000 C   0  0  0  0  0  0  0  0  0  0  0  0
   -0.3384   11.9961    0.0000 C   0  0  0  0  0  0  0  0  0  0  0  0
    1.0910   11.5414    0.0000 C   0  0  0  0  0  0  0  0  0  0  0  0
    2.8413    9.6214    0.0000 C   0  0  0  0  0  0  0  0  0  0  0  0
    3.1622    8.1561    0.0000 O   0  0  0  0  0  0  0  0  0  0  0  0
    1.4119   10.0761    0.0000 O   0  0  0  0  0  0  0  0  0  0  0  0
  1  2  1  0
  2  3  1  0
  3  4  1  0
  4  5  1  0
  5  6  1  0
  6  7  1  0
  6  8  1  0
  8  9  1  0
  8 10  1  0
 10 11  1  0
 11 12  1  0
 12 13  1  0
  4 14  1  0
 14 15  1  0
 14 16  1  0
 16 17  1  0
  2 18  1  0
 18 19  1  0
 19 20  1  0
 20 21  1  0
 21 22  1  0
 22 23  1  0
 23 24  1  0
 24 25  1  0
 25 26  1  0
 26 27  1  0
 27 28  1  0
 28 29  1  0
 29 30  1  0
 30 31  1  0
 31 32  1  0
 32 33  1  0
 33 34  1  0
 34 35  1  0
 35 36  1  0
 35 37  1  0
 37 38  1  0
 38 39  1  0
 39 40  2  0
 40 41  1  0
 41 42  2  0
 42 43  1  0
 43 44  2  0
 37 45  1  0
 45 46  2  0
 45 47  1  0
 47 48  1  0
 48 49  1  0
 49 50  1  0
 50 51  2  0
 51 52  1  0
 52 53  2  0
 53 54  1  0
 54 55  2  0
 48 56  1  0
 56 57  2  0
 56 58  1  0
 58 59  1  0
 59 60  1  0
 60 61  1  0
 61 62  2  0
 62 63  1  0
 63 64  2  0
 64 65  1  0
 65 66  2  0
 59 67  1  0
 67 68  2  0
 67 69  1  0
 33  2  1  0
 44 39  1  0
 55 50  1  0
 66 61  1  0
 13  8  1  0
M  END
>  <Title>  (179) 
idAANKgen6

$$$$

     RDKit          2D

 47 50  0  0  0  0  0  0  0  0999 V2000
   -6.0000  -10.3923    0.0000 O   0  0  0  0  0  0  0  0  0  0  0  0
   -5.2500   -9.0933    0.0000 C   0  0  0  0  0  0  0  0  0  0  0  0
   -3.7500   -9.0933    0.0000 O   0  0  0  0  0  0  0  0  0  0  0  0
   -6.0000   -7.7942    0.0000 C   0  0  0  0  0  0  0  0  0  0  0  0
   -7.5000   -7.7942    0.0000 C   0  0  0  0  0  0  0  0  0  0  0  0
   -8.2500   -6.4952    0.0000 C   0  0  0  0  0  0  0  0  0  0  0  0
   -9.7500   -6.4952    0.0000 C   0  0  0  0  0  0  0  0  0  0  0  0
  -10.5000   -5.1962    0.0000 C   0  0  0  0  0  0  0  0  0  0  0  0
   -9.7500   -3.8971    0.0000 C   0  0  0  0  0  0  0  0  0  0  0  0
   -8.2500   -3.8971    0.0000 C   0  0  0  0  0  0  0  0  0  0  0  0
   -7.5000   -5.1962    0.0000 C   0  0  0  0  0  0  0  0  0  0  0  0
   -5.2500   -6.4952    0.0000 N   0  0  0  0  0  0  0  0  0  0  0  0
   -3.7500   -6.4952    0.0000 C   0  0  0  0  0  0  0  0  0  0  0  0
   -3.0000   -7.7942    0.0000 O   0  0  0  0  0  0  0  0  0  0  0  0
   -3.0000   -5.1962    0.0000 C   0  0  0  0  0  0  0  0  0  0  0  0
   -1.5000   -5.1962    0.0000 C   0  0  0  0  0  0  0  0  0  0  0  0
   -0.7500   -3.8971    0.0000 C   0  0  0  0  0  0  0  0  0  0  0  0
   -1.5000   -2.5981    0.0000 C   0  0  0  0  0  0  0  0  0  0  0  0
   -0.7500   -1.2990    0.0000 C   0  0  0  0  0  0  0  0  0  0  0  0
    0.7500   -1.2990    0.0000 C   0  0  0  0  0  0  0  0  0  0  0  0
    1.5000   -2.5981    0.0000 C   0  0  0  0  0  0  0  0  0  0  0  0
    0.7500   -3.8971    0.0000 C   0  0  0  0  0  0  0  0  0  0  0  0
   -3.7500   -3.8971    0.0000 N   0  0  0  0  0  0  0  0  0  0  0  0
   -5.2500   -3.8971    0.0000 C   0  0  0  0  0  0  0  0  0  0  0  0
   -6.0000   -5.1962    0.0000 O   0  0  0  0  0  0  0  0  0  0  0  0
   -6.0000   -2.5981    0.0000 C   0  0  0  0  0  0  0  0  0  0  0  0
   -7.5000   -2.5981    0.0000 C   0  0  0  0  0  0  0  0  0  0  0  0
   -8.2500   -1.2990    0.0000 C   0  0  0  0  0  0  0  0  0  0  0  0
   -7.5000    0.0000    0.0000 C   0  0  0  0  0  0  0  0  0  0  0  0
   -8.2500    1.2990    0.0000 C   0  0  0  0  0  0  0  0  0  0  0  0
   -9.7500    1.2990    0.0000 C   0  0  0  0  0  0  0  0  0  0  0  0
  -10.5000    0.0000    0.0000 C   0  0  0  0  0  0  0  0  0  0  0  0
   -9.7500   -1.2990    0.0000 C   0  0  0  0  0  0  0  0  0  0  0  0
   -5.2500   -1.2990    0.0000 C   0  0  0  0  0  0  0  0  0  0  0  0
   -3.7500   -1.2990    0.0000 O   0  0  0  0  0  0  0  0  0  0  0  0
   -6.0000    0.0000    0.0000 N   0  0  0  0  0  0  0  0  0  0  0  0
   -5.2500    1.2990    0.0000 C   0  0  0  0  0  0  0  0  0  0  0  0
   -6.0000    2.5981    0.0000 C   0  0  0  0  0  0  0  0  0  0  0  0
   -5.2500    3.8971    0.0000 C   0  0  0  0  0  0  0  0  0  0  0  0
   -3.7500    3.8971    0.0000 C   0  0  0  0  0  0  0  0  0  0  0  0
   -3.0000    5.1962    0.0000 C   0  0  0  0  0  0  0  0  0  0  0  0
   -3.7500    6.4952    0.0000 C   0  0  0  0  0  0  0  0  0  0  0  0
   -5.2500    6.4952    0.0000 C   0  0  0  0  0  0  0  0  0  0  0  0
   -6.0000    5.1962    0.0000 C   0  0  0  0  0  0  0  0  0  0  0  0
   -3.7500    1.2990    0.0000 C   0  0  0  0  0  0  0  0  0  0  0  0
   -3.0000    0.0000    0.0000 O   0  0  0  0  0  0  0  0  0  0  0  0
   -3.0000    2.5981    0.0000 O   0  0  0  0  0  0  0  0  0  0  0  0
  1  2  2  0
  2  3  1  0
  2  4  1  0
  4  5  1  0
  5  6  1  0
  6  7  2  0
  7  8  1  0
  8  9  2  0
  9 10  1  0
 10 11  2  0
  4 12  1  0
 12 13  1  0
 13 14  2  0
 13 15  1  0
 15 16  1  0
 16 17  1  0
 17 18  2  0
 18 19  1  0
 19 20  2  0
 20 21  1  0
 21 22  2  0
 15 23  1  0
 23 24  1  0
 24 25  2  0
 24 26  1  0
 26 27  1  0
 27 28  1  0
 28 29  2  0
 29 30  1  0
 30 31  2  0
 31 32  1  0
 32 33  2  0
 26 34  1  0
 34 35  2  0
 34 36  1  0
 36 37  1  0
 37 38  1  0
 38 39  1  0
 39 40  2  0
 40 41  1  0
 41 42  2  0
 42 43  1  0
 43 44  2  0
 37 45  1  0
 45 46  2  0
 45 47  1  0
 11  6  1  0
 22 17  1  0
 33 28  1  0
 44 39  1  0
M  END
>  <Title>  (180) 
idAANLgen6

$$$$

     RDKit          2D

 68 74  0  0  0  0  0  0  0  0999 V2000
    3.9271    0.8857    0.0000 C   0  0  0  0  0  0  0  0  0  0  0  0
    3.9271    0.0000    0.0000 C   0  0  0  0  0  0  0  0  0  0  0  0
    3.9271   -1.5000    0.0000 C   0  0  0  0  0  0  0  0  0  0  0  0
    5.3825   -0.3630    0.0000 C   0  0  0  0  0  0  0  0  0  0  0  0
    2.4271    0.0000    0.0000 C   0  0  0  0  0  0  0  0  0  0  0  0
    1.9635   -1.4266    0.0000 C   0  0  0  0  0  0  0  0  0  0  0  0
    0.7500   -2.3083    0.0000 C   0  0  0  0  0  0  0  0  0  0  0  0
   -0.7500   -2.3083    0.0000 C   0  0  0  0  0  0  0  0  0  0  0  0
   -1.2135   -3.7348    0.0000 C   0  0  0  0  0  0  0  0  0  0  0  0
   -0.1293   -4.7714    0.0000 C   0  0  0  0  0  0  0  0  0  0  0  0
   -0.2638   -6.2654    0.0000 C   0  0  0  0  0  0  0  0  0  0  0  0
   -1.5157   -7.0917    0.0000 C   0  0  0  0  0  0  0  0  0  0  0  0
   -2.9422   -6.6282    0.0000 C   0  0  0  0  0  0  0  0  0  0  0  0
   -3.4693   -5.2239    0.0000 C   0  0  0  0  0  0  0  0  0  0  0  0
   -2.7000   -3.9362    0.0000 C   0  0  0  0  0  0  0  0  0  0  0  0
   -4.1963   -3.8316    0.0000 C   0  0  0  0  0  0  0  0  0  0  0  0
   -2.3844   -2.4698    0.0000 C   0  0  0  0  0  0  0  0  0  0  0  0
   -1.9635   -1.4266    0.0000 C   0  0  0  0  0  0  0  0  0  0  0  0
   -2.4271    0.0000    0.0000 C   0  0  0  0  0  0  0  0  0  0  0  0
   -3.8825   -0.3630    0.0000 O   0  0  0  0  0  0  0  0  0  0  0  0
   -1.9635    1.4266    0.0000 C   0  0  0  0  0  0  0  0  0  0  0  0
   -0.7500    2.3083    0.0000 C   0  0  0  0  0  0  0  0  0  0  0  0
    0.7500    2.3083    0.0000 C   0  0  0  0  0  0  0  0  0  0  0  0
    1.9635    1.4266    0.0000 C   0  0  0  0  0  0  0  0  0  0  0  0
    2.0681    2.9229    0.0000 C   0  0  0  0  0  0  0  0  0  0  0  0
    3.4635    1.4266    0.0000 C   0  0  0  0  0  0  0  0  0  0  0  0
    4.2135    0.1275    0.0000 C   0  0  0  0  0  0  0  0  0  0  0  0
    5.7135    0.1275    0.0000 C   0  0  0  0  0  0  0  0  0  0  0  0
    6.4635    1.4266    0.0000 C   0  0  0  0  0  0  0  0  0  0  0  0
    5.7135    2.7256    0.0000 C   0  0  0  0  0  0  0  0  0  0  0  0
    4.2135    2.7256    0.0000 C   0  0  0  0  0  0  0  0  0  0  0  0
    4.9635    1.4266    0.0000 C   0  0  0  0  0  0  0  0  0  0  0  0
    3.4635    1.4266    0.0000 C   0  0  0  0  0  0  0  0  0  0  0  0
    3.0501   -0.0153    0.0000 O   0  0  0  0  0  0  0  0  0  0  0  0
    2.7135    2.7256    0.0000 N   0  0  0  0  0  0  0  0  0  0  0  0
    1.2135    2.7256    0.0000 C   0  0  0  0  0  0  0  0  0  0  0  0
    0.4635    4.0247    0.0000 C   0  0  0  0  0  0  0  0  0  0  0  0
   -1.0365    4.0247    0.0000 C   0  0  0  0  0  0  0  0  0  0  0  0
   -1.7865    5.3237    0.0000 C   0  0  0  0  0  0  0  0  0  0  0  0
   -3.2865    5.3237    0.0000 C   0  0  0  0  0  0  0  0  0  0  0  0
   -4.0365    4.0247    0.0000 C   0  0  0  0  0  0  0  0  0  0  0  0
   -3.2865    2.7256    0.0000 C   0  0  0  0  0  0  0  0  0  0  0  0
   -1.7865    2.7256    0.0000 C   0  0  0  0  0  0  0  0  0  0  0  0
    0.4635    1.4266    0.0000 C   0  0  0  0  0  0  0  0  0  0  0  0
    1.2135    0.1275    0.0000 O   0  0  0  0  0  0  0  0  0  0  0  0
   -1.0365    1.4266    0.0000 N   0  0  0  0  0  0  0  0  0  0  0  0
   -1.7865    0.1275    0.0000 C   0  0  0  0  0  0  0  0  0  0  0  0
   -3.2865    0.1275    0.0000 C   0  0  0  0  0  0  0  0  0  0  0  0
   -4.0365   -1.1715    0.0000 C   0  0  0  0  0  0  0  0  0  0  0  0
   -5.5365   -1.1715    0.0000 C   0  0  0  0  0  0  0  0  0  0  0  0
   -6.2865   -2.4705    0.0000 C   0  0  0  0  0  0  0  0  0  0  0  0
   -5.5365   -3.7696    0.0000 C   0  0  0  0  0  0  0  0  0  0  0  0
   -4.0365   -3.7696    0.0000 C   0  0  0  0  0  0  0  0  0  0  0  0
   -3.2865   -2.4705    0.0000 C   0  0  0  0  0  0  0  0  0  0  0  0
   -1.0365   -1.1715    0.0000 C   0  0  0  0  0  0  0  0  0  0  0  0
   -1.6225   -2.5523    0.0000 O   0  0  0  0  0  0  0  0  0  0  0  0
    0.4635   -1.1715    0.0000 N   0  0  0  0  0  0  0  0  0  0  0  0
    1.2135   -2.4705    0.0000 C   0  0  0  0  0  0  0  0  0  0  0  0
    2.7135   -2.4705    0.0000 C   0  0  0  0  0  0  0  0  0  0  0  0
    3.4635   -3.7696    0.0000 C   0  0  0  0  0  0  0  0  0  0  0  0
    2.7135   -5.0686    0.0000 C   0  0  0  0  0  0  0  0  0  0  0  0
    3.4635   -6.3676    0.0000 C   0  0  0  0  0  0  0  0  0  0  0  0
    4.9635   -6.3676    0.0000 C   0  0  0  0  0  0  0  0  0  0  0  0
    5.7135   -5.0686    0.0000 C   0  0  0  0  0  0  0  0  0  0  0  0
    4.9635   -3.7696    0.0000 C   0  0  0  0  0  0  0  0  0  0  0  0
    0.4635   -3.7696    0.0000 C   0  0  0  0  0  0  0  0  0  0  0  0
   -0.9919   -4.1325    0.0000 O   0  0  0  0  0  0  0  0  0  0  0  0
    1.2135   -5.0686    0.0000 O   0  0  0  0  0  0  0  0  0  0  0  0
  1  2  1  0
  2  3  1  0
  2  4  1  0
  2  5  1  0
  5  6  1  0
  6  7  1  0
  7  8  1  0
  8  9  1  0
  9 10  1  0
 10 11  1  0
 11 12  1  0
 12 13  1  0
 13 14  1  0
 14 15  1  0
 15 16  1  0
 15 17  1  0
  8 18  1  0
 18 19  1  0
 19 20  1  0
 19 21  1  0
 21 22  1  0
 22 23  1  0
 23 24  1  0
 24 25  1  0
 24 26  1  0
 26 27  1  0
 27 28  1  0
 28 29  1  0
 29 30  1  0
 30 31  1  0
 30 32  1  0
 32 33  1  0
 33 34  2  0
 33 35  1  0
 35 36  1  0
 36 37  1  0
 37 38  1  0
 38 39  2  0
 39 40  1  0
 40 41  2  0
 41 42  1  0
 42 43  2  0
 36 44  1  0
 44 45  2  0
 44 46  1  0
 46 47  1  0
 47 48  1  0
 48 49  1  0
 49 50  2  0
 50 51  1  0
 51 52  2  0
 52 53  1  0
 53 54  2  0
 47 55  1  0
 55 56  2  0
 55 57  1  0
 57 58  1  0
 58 59  1  0
 59 60  1  0
 60 61  2  0
 61 62  1  0
 62 63  2  0
 63 64  1  0
 64 65  2  0
 58 66  1  0
 66 67  2  0
 66 68  1  0
 24  5  1  0
 31 26  1  0
 43 38  1  0
 54 49  1  0
 65 60  1  0
 15  9  1  0
 32 28  1  0
M  END
>  <Title>  (181) 
idAANMgen6

$$$$

     RDKit          2D

 68 72  0  0  0  0  0  0  0  0999 V2000
    3.4720    2.7846    0.0000 C   0  0  0  0  0  0  0  0  0  0  0  0
    2.7750    1.4564    0.0000 C   0  0  0  0  0  0  0  0  0  0  0  0
    4.2640    1.2756    0.0000 C   0  0  0  0  0  0  0  0  0  0  0  0
    4.8520   -0.1044    0.0000 C   0  0  0  0  0  0  0  0  0  0  0  0
    3.9509   -1.3035    0.0000 C   0  0  0  0  0  0  0  0  0  0  0  0
    4.5388   -2.6835    0.0000 C   0  0  0  0  0  0  0  0  0  0  0  0
    6.0279   -2.8643    0.0000 O   0  0  0  0  0  0  0  0  0  0  0  0
    3.6377   -3.8827    0.0000 C   0  0  0  0  0  0  0  0  0  0  0  0
    2.5393   -2.8611    0.0000 O   0  0  0  0  0  0  0  0  0  0  0  0
    2.5070   -4.8683    0.0000 C   0  0  0  0  0  0  0  0  0  0  0  0
    3.0949   -6.2482    0.0000 C   0  0  0  0  0  0  0  0  0  0  0  0
    4.5890   -6.1155    0.0000 C   0  0  0  0  0  0  0  0  0  0  0  0
    4.9245   -4.6535    0.0000 C   0  0  0  0  0  0  0  0  0  0  0  0
    6.3410   -0.2852    0.0000 C   0  0  0  0  0  0  0  0  0  0  0  0
    7.2422    0.9140    0.0000 O   0  0  0  0  0  0  0  0  0  0  0  0
    6.9290   -1.6651    0.0000 C   0  0  0  0  0  0  0  0  0  0  0  0
    8.4181   -1.8459    0.0000 O   0  0  0  0  0  0  0  0  0  0  0  0
    3.1339    0.0000    0.0000 C   0  0  0  0  0  0  0  0  0  0  0  0
    2.7750   -1.4564    0.0000 C   0  0  0  0  0  0  0  0  0  0  0  0
    1.7803   -2.5792    0.0000 C   0  0  0  0  0  0  0  0  0  0  0  0
    0.3778   -3.1111    0.0000 C   0  0  0  0  0  0  0  0  0  0  0  0
   -1.1113   -2.9303    0.0000 C   0  0  0  0  0  0  0  0  0  0  0  0
   -2.3458   -2.0782    0.0000 C   0  0  0  0  0  0  0  0  0  0  0  0
   -3.0429   -0.7500    0.0000 C   0  0  0  0  0  0  0  0  0  0  0  0
   -3.0429    0.7500    0.0000 C   0  0  0  0  0  0  0  0  0  0  0  0
   -2.3458    2.0782    0.0000 C   0  0  0  0  0  0  0  0  0  0  0  0
   -1.1113    2.9303    0.0000 C   0  0  0  0  0  0  0  0  0  0  0  0
    0.3778    3.1111    0.0000 C   0  0  0  0  0  0  0  0  0  0  0  0
    1.7803    2.5792    0.0000 C   0  0  0  0  0  0  0  0  0  0  0  0
    2.6324    3.8137    0.0000 C   0  0  0  0  0  0  0  0  0  0  0  0
    4.1275    3.6930    0.0000 C   0  0  0  0  0  0  0  0  0  0  0  0
    4.9796    4.9274    0.0000 C   0  0  0  0  0  0  0  0  0  0  0  0
    6.4747    4.8067    0.0000 C   0  0  0  0  0  0  0  0  0  0  0  0
    7.1178    3.4516    0.0000 O   0  0  0  0  0  0  0  0  0  0  0  0
    7.3268    6.0412    0.0000 N   0  0  0  0  0  0  0  0  0  0  0  0
    8.8220    5.9205    0.0000 C   0  0  0  0  0  0  0  0  0  0  0  0
    9.6741    7.1550    0.0000 C   0  0  0  0  0  0  0  0  0  0  0  0
   11.1692    7.0343    0.0000 C   0  0  0  0  0  0  0  0  0  0  0  0
   11.8122    5.6791    0.0000 C   0  0  0  0  0  0  0  0  0  0  0  0
   13.3074    5.5584    0.0000 C   0  0  0  0  0  0  0  0  0  0  0  0
   14.1595    6.7929    0.0000 C   0  0  0  0  0  0  0  0  0  0  0  0
   13.5164    8.1481    0.0000 C   0  0  0  0  0  0  0  0  0  0  0  0
   12.0213    8.2688    0.0000 C   0  0  0  0  0  0  0  0  0  0  0  0
    9.4650    4.5653    0.0000 C   0  0  0  0  0  0  0  0  0  0  0  0
    8.6129    3.3309    0.0000 O   0  0  0  0  0  0  0  0  0  0  0  0
   10.9602    4.4446    0.0000 N   0  0  0  0  0  0  0  0  0  0  0  0
   11.6032    3.0895    0.0000 C   0  0  0  0  0  0  0  0  0  0  0  0
   10.7511    1.8550    0.0000 C   0  0  0  0  0  0  0  0  0  0  0  0
   11.3941    0.4998    0.0000 C   0  0  0  0  0  0  0  0  0  0  0  0
   12.8893    0.3791    0.0000 C   0  0  0  0  0  0  0  0  0  0  0  0
   13.5323   -0.9761    0.0000 C   0  0  0  0  0  0  0  0  0  0  0  0
   12.6802   -2.2105    0.0000 C   0  0  0  0  0  0  0  0  0  0  0  0
   11.1851   -2.0898    0.0000 C   0  0  0  0  0  0  0  0  0  0  0  0
   10.5420   -0.7347    0.0000 C   0  0  0  0  0  0  0  0  0  0  0  0
   13.0983    2.9688    0.0000 C   0  0  0  0  0  0  0  0  0  0  0  0
   13.9504    4.2032    0.0000 O   0  0  0  0  0  0  0  0  0  0  0  0
   13.7414    1.6136    0.0000 N   0  0  0  0  0  0  0  0  0  0  0  0
   15.2365    1.4929    0.0000 C   0  0  0  0  0  0  0  0  0  0  0  0
   15.8795    0.1377    0.0000 C   0  0  0  0  0  0  0  0  0  0  0  0
   17.3747    0.0170    0.0000 C   0  0  0  0  0  0  0  0  0  0  0  0
   18.2268    1.2515    0.0000 C   0  0  0  0  0  0  0  0  0  0  0  0
   19.7219    1.1308    0.0000 C   0  0  0  0  0  0  0  0  0  0  0  0
   20.3649   -0.2244    0.0000 C   0  0  0  0  0  0  0  0  0  0  0  0
   19.5129   -1.4589    0.0000 C   0  0  0  0  0  0  0  0  0  0  0  0
   18.0177   -1.3382    0.0000 C   0  0  0  0  0  0  0  0  0  0  0  0
   16.0886    2.7274    0.0000 C   0  0  0  0  0  0  0  0  0  0  0  0
   15.4456    4.0825    0.0000 O   0  0  0  0  0  0  0  0  0  0  0  0
   17.5837    2.6067    0.0000 O   0  0  0  0  0  0  0  0  0  0  0  0
  1  2  1  0
  2  3  1  0
  3  4  1  0
  4  5  1  0
  5  6  1  0
  6  7  1  0
  6  8  1  0
  8  9  1  0
  8 10  1  0
 10 11  1  0
 11 12  1  0
 12 13  1  0
  4 14  1  0
 14 15  1  0
 14 16  1  0
 16 17  1  0
  2 18  1  0
 18 19  1  0
 19 20  1  0
 20 21  1  0
 21 22  1  0
 22 23  1  0
 23 24  1  0
 24 25  1  0
 25 26  1  0
 26 27  1  0
 27 28  1  0
 28 29  1  0
 29 30  1  0
 30 31  1  0
 31 32  1  0
 32 33  1  0
 33 34  2  0
 33 35  1  0
 35 36  1  0
 36 37  1  0
 37 38  1  0
 38 39  2  0
 39 40  1  0
 40 41  2  0
 41 42  1  0
 42 43  2  0
 36 44  1  0
 44 45  2  0
 44 46  1  0
 46 47  1  0
 47 48  1  0
 48 49  1  0
 49 50  2  0
 50 51  1  0
 51 52  2  0
 52 53  1  0
 53 54  2  0
 47 55  1  0
 55 56  2  0
 55 57  1  0
 57 58  1  0
 58 59  1  0
 59 60  1  0
 60 61  2  0
 61 62  1  0
 62 63  2  0
 63 64  1  0
 64 65  2  0
 58 66  1  0
 66 67  2  0
 66 68  1  0
 29  2  1  0
 43 38  1  0
 54 49  1  0
 65 60  1  0
 13  8  1  0
M  END
>  <Title>  (182) 
idAANNgen6

$$$$

     RDKit          2D

 48 49  0  0  0  0  0  0  0  0999 V2000
    7.7293    0.7998    0.0000 C   0  0  0  0  0  0  0  0  0  0  0  0
    6.4603    0.0000    0.0000 C   0  0  0  0  0  0  0  0  0  0  0  0
    7.7293   -0.7998    0.0000 C   0  0  0  0  0  0  0  0  0  0  0  0
    9.0565   -0.1007    0.0000 C   0  0  0  0  0  0  0  0  0  0  0  0
    9.1146    1.3981    0.0000 O   0  0  0  0  0  0  0  0  0  0  0  0
   10.3254   -0.9005    0.0000 C   0  0  0  0  0  0  0  0  0  0  0  0
   11.6526   -0.2015    0.0000 O   0  0  0  0  0  0  0  0  0  0  0  0
    6.2862    1.4899    0.0000 C   0  0  0  0  0  0  0  0  0  0  0  0
    5.7732    2.8994    0.0000 C   0  0  0  0  0  0  0  0  0  0  0  0
    4.9489    4.1526    0.0000 C   0  0  0  0  0  0  0  0  0  0  0  0
    3.8578    5.1820    0.0000 C   0  0  0  0  0  0  0  0  0  0  0  0
    2.5588    5.9320    0.0000 C   0  0  0  0  0  0  0  0  0  0  0  0
    1.1218    6.3622    0.0000 C   0  0  0  0  0  0  0  0  0  0  0  0
   -0.3756    6.4494    0.0000 C   0  0  0  0  0  0  0  0  0  0  0  0
   -1.8528    6.1889    0.0000 C   0  0  0  0  0  0  0  0  0  0  0  0
   -3.2302    5.5948    0.0000 C   0  0  0  0  0  0  0  0  0  0  0  0
   -4.4334    4.6991    0.0000 C   0  0  0  0  0  0  0  0  0  0  0  0
   -5.3975    3.5500    0.0000 C   0  0  0  0  0  0  0  0  0  0  0  0
   -6.0707    2.2096    0.0000 C   0  0  0  0  0  0  0  0  0  0  0  0
   -6.4167    0.7500    0.0000 C   0  0  0  0  0  0  0  0  0  0  0  0
   -6.4167   -0.7500    0.0000 C   0  0  0  0  0  0  0  0  0  0  0  0
   -6.0707   -2.2096    0.0000 C   0  0  0  0  0  0  0  0  0  0  0  0
   -5.3975   -3.5500    0.0000 C   0  0  0  0  0  0  0  0  0  0  0  0
   -4.4334   -4.6991    0.0000 C   0  0  0  0  0  0  0  0  0  0  0  0
   -3.2302   -5.5948    0.0000 C   0  0  0  0  0  0  0  0  0  0  0  0
   -1.8528   -6.1889    0.0000 C   0  0  0  0  0  0  0  0  0  0  0  0
   -0.3756   -6.4494    0.0000 C   0  0  0  0  0  0  0  0  0  0  0  0
    1.1218   -6.3622    0.0000 C   0  0  0  0  0  0  0  0  0  0  0  0
    2.5588   -5.9320    0.0000 C   0  0  0  0  0  0  0  0  0  0  0  0
    3.8578   -5.1820    0.0000 C   0  0  0  0  0  0  0  0  0  0  0  0
    4.9489   -4.1526    0.0000 C   0  0  0  0  0  0  0  0  0  0  0  0
    5.7732   -2.8994    0.0000 C   0  0  0  0  0  0  0  0  0  0  0  0
    6.2862   -1.4899    0.0000 C   0  0  0  0  0  0  0  0  0  0  0  0
    7.7458   -1.8358    0.0000 C   0  0  0  0  0  0  0  0  0  0  0  0
    8.1760   -3.2728    0.0000 C   0  0  0  0  0  0  0  0  0  0  0  0
    9.4812   -2.5336    0.0000 C   0  0  0  0  0  0  0  0  0  0  0  0
    8.7420   -1.2284    0.0000 C   0  0  0  0  0  0  0  0  0  0  0  0
   10.2204   -3.8388    0.0000 C   0  0  0  0  0  0  0  0  0  0  0  0
   10.7864   -1.7944    0.0000 C   0  0  0  0  0  0  0  0  0  0  0  0
    9.1871   -4.3808    0.0000 C   0  0  0  0  0  0  0  0  0  0  0  0
    8.9512   -5.8621    0.0000 C   0  0  0  0  0  0  0  0  0  0  0  0
   10.1835   -6.7174    0.0000 O   0  0  0  0  0  0  0  0  0  0  0  0
    7.6460   -6.6013    0.0000 C   0  0  0  0  0  0  0  0  0  0  0  0
    6.2542   -6.0417    0.0000 C   0  0  0  0  0  0  0  0  0  0  0  0
    5.8240   -4.6047    0.0000 C   0  0  0  0  0  0  0  0  0  0  0  0
    6.6793   -3.3724    0.0000 C   0  0  0  0  0  0  0  0  0  0  0  0
    5.8897   -3.2628    0.0000 C   0  0  0  0  0  0  0  0  0  0  0  0
    6.9152   -1.8911    0.0000 C   0  0  0  0  0  0  0  0  0  0  0  0
  1  2  1  0
  2  3  1  0
  3  4  1  0
  4  5  1  0
  4  6  1  0
  6  7  1  0
  2  8  1  0
  8  9  1  0
  9 10  1  0
 10 11  1  0
 11 12  1  0
 12 13  1  0
 13 14  1  0
 14 15  1  0
 15 16  1  0
 16 17  1  0
 17 18  1  0
 18 19  1  0
 19 20  1  0
 20 21  1  0
 21 22  1  0
 22 23  1  0
 23 24  1  0
 24 25  1  0
 25 26  1  0
 26 27  1  0
 27 28  1  0
 28 29  1  0
 29 30  1  0
 30 31  1  0
 31 32  1  0
 32 33  1  0
 33 34  1  0
 34 35  1  0
 35 36  1  0
 36 37  1  0
 36 38  1  0
 36 39  1  0
 35 40  1  0
 40 41  1  0
 41 42  1  0
 41 43  1  0
 43 44  1  0
 44 45  1  0
 45 46  1  0
 46 47  1  0
 46 48  1  0
 33  2  1  0
 46 35  1  0
M  END
>  <Title>  (183) 
idAANOgen6

$$$$

     RDKit          2D

 56 60  0  0  0  0  0  0  0  0999 V2000
   -9.0702    3.7502    0.0000 C   0  0  0  0  0  0  0  0  0  0  0  0
   -7.6507    4.2351    0.0000 C   0  0  0  0  0  0  0  0  0  0  0  0
   -6.5211    3.2481    0.0000 O   0  0  0  0  0  0  0  0  0  0  0  0
   -7.3609    5.7068    0.0000 C   0  0  0  0  0  0  0  0  0  0  0  0
   -8.4905    6.6937    0.0000 C   0  0  0  0  0  0  0  0  0  0  0  0
   -9.9100    6.2089    0.0000 C   0  0  0  0  0  0  0  0  0  0  0  0
  -11.0396    7.1958    0.0000 C   0  0  0  0  0  0  0  0  0  0  0  0
  -12.4590    6.7110    0.0000 C   0  0  0  0  0  0  0  0  0  0  0  0
  -12.7489    5.2392    0.0000 C   0  0  0  0  0  0  0  0  0  0  0  0
  -11.6193    4.2523    0.0000 C   0  0  0  0  0  0  0  0  0  0  0  0
  -10.1998    4.7372    0.0000 C   0  0  0  0  0  0  0  0  0  0  0  0
   -5.9414    6.1916    0.0000 N   0  0  0  0  0  0  0  0  0  0  0  0
   -4.8118    5.2047    0.0000 C   0  0  0  0  0  0  0  0  0  0  0  0
   -5.1016    3.7330    0.0000 O   0  0  0  0  0  0  0  0  0  0  0  0
   -3.3923    5.6895    0.0000 C   0  0  0  0  0  0  0  0  0  0  0  0
   -3.1024    7.1612    0.0000 C   0  0  0  0  0  0  0  0  0  0  0  0
   -4.2320    8.1481    0.0000 C   0  0  0  0  0  0  0  0  0  0  0  0
   -3.9421    9.6199    0.0000 C   0  0  0  0  0  0  0  0  0  0  0  0
   -5.0717   10.6068    0.0000 C   0  0  0  0  0  0  0  0  0  0  0  0
   -6.4912   10.1219    0.0000 C   0  0  0  0  0  0  0  0  0  0  0  0
   -6.7811    8.6502    0.0000 C   0  0  0  0  0  0  0  0  0  0  0  0
   -5.6515    7.6633    0.0000 C   0  0  0  0  0  0  0  0  0  0  0  0
   -2.2627    4.7026    0.0000 N   0  0  0  0  0  0  0  0  0  0  0  0
   -2.5525    3.2309    0.0000 C   0  0  0  0  0  0  0  0  0  0  0  0
   -3.9720    2.7461    0.0000 O   0  0  0  0  0  0  0  0  0  0  0  0
   -1.4229    2.2440    0.0000 C   0  0  0  0  0  0  0  0  0  0  0  0
    0.0395    2.5777    0.0000 C   0  0  0  0  0  0  0  0  0  0  0  0
    1.0777    1.3515    0.0000 C   0  0  0  0  0  0  0  0  0  0  0  0
    1.7286    0.0000    0.0000 C   0  0  0  0  0  0  0  0  0  0  0  0
    1.0777   -1.3515    0.0000 C   0  0  0  0  0  0  0  0  0  0  0  0
   -0.3846   -1.6852    0.0000 C   0  0  0  0  0  0  0  0  0  0  0  0
   -0.7184   -3.1476    0.0000 N   0  0  0  0  0  0  0  0  0  0  0  0
   -2.1518   -3.5898    0.0000 C   0  0  0  0  0  0  0  0  0  0  0  0
   -3.2514   -2.5695    0.0000 O   0  0  0  0  0  0  0  0  0  0  0  0
   -2.4856   -5.0522    0.0000 O   0  0  0  0  0  0  0  0  0  0  0  0
   -3.9189   -5.4943    0.0000 C   0  0  0  0  0  0  0  0  0  0  0  0
   -3.4768   -6.9276    0.0000 C   0  0  0  0  0  0  0  0  0  0  0  0
   -4.3611   -4.0609    0.0000 C   0  0  0  0  0  0  0  0  0  0  0  0
   -5.3523   -5.9364    0.0000 C   0  0  0  0  0  0  0  0  0  0  0  0
   -1.5574   -0.7500    0.0000 C   0  0  0  0  0  0  0  0  0  0  0  0
   -1.5574    0.7500    0.0000 C   0  0  0  0  0  0  0  0  0  0  0  0
   -0.3846    1.6852    0.0000 C   0  0  0  0  0  0  0  0  0  0  0  0
   -0.7184    3.1476    0.0000 C   0  0  0  0  0  0  0  0  0  0  0  0
   -1.8738    3.8459    0.0000 O   0  0  0  0  0  0  0  0  0  0  0  0
    0.3812    4.1679    0.0000 N   0  0  0  0  0  0  0  0  0  0  0  0
    0.0474    5.6303    0.0000 C   0  0  0  0  0  0  0  0  0  0  0  0
    1.1469    6.6505    0.0000 C   0  0  0  0  0  0  0  0  0  0  0  0
    0.8132    8.1129    0.0000 C   0  0  0  0  0  0  0  0  0  0  0  0
    1.9127    9.1332    0.0000 C   0  0  0  0  0  0  0  0  0  0  0  0
    1.5790   10.5956    0.0000 C   0  0  0  0  0  0  0  0  0  0  0  0
    0.1456   11.0377    0.0000 C   0  0  0  0  0  0  0  0  0  0  0  0
   -0.9540   10.0175    0.0000 C   0  0  0  0  0  0  0  0  0  0  0  0
   -0.6202    8.5551    0.0000 C   0  0  0  0  0  0  0  0  0  0  0  0
   -1.3860    6.0724    0.0000 C   0  0  0  0  0  0  0  0  0  0  0  0
   -2.1618    5.6450    0.0000 O   0  0  0  0  0  0  0  0  0  0  0  0
   -1.7198    7.5348    0.0000 O   0  0  0  0  0  0  0  0  0  0  0  0
  1  2  1  0
  2  3  1  0
  2  4  1  0
  4  5  1  0
  5  6  1  0
  6  7  2  0
  7  8  1  0
  8  9  2  0
  9 10  1  0
 10 11  2  0
  4 12  1  0
 12 13  1  0
 13 14  2  0
 13 15  1  0
 15 16  1  0
 16 17  1  0
 17 18  2  0
 18 19  1  0
 19 20  2  0
 20 21  1  0
 21 22  2  0
 15 23  1  0
 23 24  1  0
 24 25  2  0
 24 26  1  0
 26 27  1  0
 27 28  1  0
 28 29  1  0
 29 30  1  0
 30 31  1  0
 31 32  1  0
 32 33  1  0
 33 34  2  0
 33 35  1  0
 35 36  1  0
 36 37  1  0
 36 38  1  0
 36 39  1  0
 31 40  1  0
 40 41  1  0
 41 42  1  0
 42 43  1  0
 43 44  2  0
 43 45  1  0
 45 46  1  0
 46 47  1  0
 47 48  1  0
 48 49  2  0
 49 50  1  0
 50 51  2  0
 51 52  1  0
 52 53  2  0
 46 54  1  0
 54 55  2  0
 54 56  1  0
 11  6  1  0
 22 17  1  0
 41 26  1  0
 53 48  1  0
 42 28  1  0
M  END
>  <Title>  (184) 
idAANPgen6

$$$$

     RDKit          2D

 60 67  0  0  0  0  0  0  0  0999 V2000
    2.9554   -2.2351    0.0000 O   0  0  0  0  0  0  0  0  0  0  0  0
    1.5000   -2.5981    0.0000 C   0  0  0  0  0  0  0  0  0  0  0  0
    0.7500   -3.8971    0.0000 N   0  0  0  0  0  0  0  0  0  0  0  0
    1.5000   -5.1962    0.0000 C   0  0  0  0  0  0  0  0  0  0  0  0
    0.8899   -6.5665    0.0000 C   0  0  0  0  0  0  0  0  0  0  0  0
    2.0046   -7.5702    0.0000 C   0  0  0  0  0  0  0  0  0  0  0  0
    3.3037   -6.8202    0.0000 C   0  0  0  0  0  0  0  0  0  0  0  0
    2.9918   -5.3529    0.0000 C   0  0  0  0  0  0  0  0  0  0  0  0
    1.6927   -6.1029    0.0000 N   0  0  0  0  0  0  0  0  0  0  0  0
    0.3224   -5.4928    0.0000 C   0  0  0  0  0  0  0  0  0  0  0  0
   -0.8911   -6.3745    0.0000 C   0  0  0  0  0  0  0  0  0  0  0  0
   -2.2614   -5.7644    0.0000 C   0  0  0  0  0  0  0  0  0  0  0  0
   -2.4182   -4.2726    0.0000 C   0  0  0  0  0  0  0  0  0  0  0  0
   -3.7885   -3.6625    0.0000 C   0  0  0  0  0  0  0  0  0  0  0  0
   -5.0021   -4.5442    0.0000 C   0  0  0  0  0  0  0  0  0  0  0  0
   -4.8453   -6.0360    0.0000 C   0  0  0  0  0  0  0  0  0  0  0  0
   -3.4749   -6.6461    0.0000 C   0  0  0  0  0  0  0  0  0  0  0  0
    0.7500   -1.2990    0.0000 C   0  0  0  0  0  0  0  0  0  0  0  0
    1.5000    0.0000    0.0000 C   0  0  0  0  0  0  0  0  0  0  0  0
    0.7500    1.2990    0.0000 C   0  0  0  0  0  0  0  0  0  0  0  0
   -0.7500    1.2990    0.0000 C   0  0  0  0  0  0  0  0  0  0  0  0
   -1.5000    0.0000    0.0000 C   0  0  0  0  0  0  0  0  0  0  0  0
   -0.7500   -1.2990    0.0000 C   0  0  0  0  0  0  0  0  0  0  0  0
   -0.0000   -0.0000    0.0000 C   0  0  0  0  0  0  0  0  0  0  0  0
    0.7500   -1.2990    0.0000 C   0  0  0  0  0  0  0  0  0  0  0  0
    2.2500   -1.2990    0.0000 O   0  0  0  0  0  0  0  0  0  0  0  0
   -0.0000   -2.5981    0.0000 N   0  0  0  0  0  0  0  0  0  0  0  0
    0.7500   -3.8971    0.0000 C   0  0  0  0  0  0  0  0  0  0  0  0
   -0.0000   -5.1962    0.0000 C   0  0  0  0  0  0  0  0  0  0  0  0
    0.7500   -6.4952    0.0000 C   0  0  0  0  0  0  0  0  0  0  0  0
   -0.0000   -7.7942    0.0000 C   0  0  0  0  0  0  0  0  0  0  0  0
    0.7500   -9.0933    0.0000 C   0  0  0  0  0  0  0  0  0  0  0  0
    2.2500   -9.0933    0.0000 C   0  0  0  0  0  0  0  0  0  0  0  0
    3.0000   -7.7942    0.0000 C   0  0  0  0  0  0  0  0  0  0  0  0
    2.2500   -6.4952    0.0000 C   0  0  0  0  0  0  0  0  0  0  0  0
    2.2500   -3.8971    0.0000 C   0  0  0  0  0  0  0  0  0  0  0  0
    3.2920   -4.9761    0.0000 O   0  0  0  0  0  0  0  0  0  0  0  0
    3.0000   -2.5981    0.0000 N   0  0  0  0  0  0  0  0  0  0  0  0
    4.5000   -2.5981    0.0000 C   0  0  0  0  0  0  0  0  0  0  0  0
    5.2500   -1.2990    0.0000 C   0  0  0  0  0  0  0  0  0  0  0  0
    6.7500   -1.2990    0.0000 C   0  0  0  0  0  0  0  0  0  0  0  0
    7.5000   -2.5981    0.0000 C   0  0  0  0  0  0  0  0  0  0  0  0
    9.0000   -2.5981    0.0000 C   0  0  0  0  0  0  0  0  0  0  0  0
    9.7500   -1.2990    0.0000 C   0  0  0  0  0  0  0  0  0  0  0  0
    9.0000   -0.0000    0.0000 C   0  0  0  0  0  0  0  0  0  0  0  0
    7.5000   -0.0000    0.0000 C   0  0  0  0  0  0  0  0  0  0  0  0
    5.2500   -3.8971    0.0000 C   0  0  0  0  0  0  0  0  0  0  0  0
    4.5000   -5.1962    0.0000 O   0  0  0  0  0  0  0  0  0  0  0  0
    6.7500   -3.8971    0.0000 N   0  0  0  0  0  0  0  0  0  0  0  0
    7.5000   -5.1962    0.0000 C   0  0  0  0  0  0  0  0  0  0  0  0
    9.0000   -5.1962    0.0000 C   0  0  0  0  0  0  0  0  0  0  0  0
    9.7500   -6.4952    0.0000 C   0  0  0  0  0  0  0  0  0  0  0  0
    9.0000   -7.7942    0.0000 C   0  0  0  0  0  0  0  0  0  0  0  0
    9.7500   -9.0933    0.0000 C   0  0  0  0  0  0  0  0  0  0  0  0
   11.2500   -9.0933    0.0000 C   0  0  0  0  0  0  0  0  0  0  0  0
   12.0000   -7.7942    0.0000 C   0  0  0  0  0  0  0  0  0  0  0  0
   11.2500   -6.4952    0.0000 C   0  0  0  0  0  0  0  0  0  0  0  0
    6.7500   -6.4952    0.0000 C   0  0  0  0  0  0  0  0  0  0  0  0
    5.2500   -6.4952    0.0000 O   0  0  0  0  0  0  0  0  0  0  0  0
    7.5000   -7.7942    0.0000 O   0  0  0  0  0  0  0  0  0  0  0  0
  1  2  2  0
  2  3  1  0
  3  4  1  0
  4  5  1  0
  5  6  1  0
  6  7  1  0
  7  8  1  0
  8  9  1  0
  9 10  1  0
 10 11  1  0
 11 12  1  0
 12 13  2  0
 13 14  1  0
 14 15  2  0
 15 16  1  0
 16 17  2  0
  2 18  1  0
 18 19  1  0
 19 20  1  0
 20 21  1  0
 21 22  1  0
 22 23  1  0
 22 24  1  0
 24 25  1  0
 25 26  2  0
 25 27  1  0
 27 28  1  0
 28 29  1  0
 29 30  1  0
 30 31  2  0
 31 32  1  0
 32 33  2  0
 33 34  1  0
 34 35  2  0
 28 36  1  0
 36 37  2  0
 36 38  1  0
 38 39  1  0
 39 40  1  0
 40 41  1  0
 41 42  2  0
 42 43  1  0
 43 44  2  0
 44 45  1  0
 45 46  2  0
 39 47  1  0
 47 48  2  0
 47 49  1  0
 49 50  1  0
 50 51  1  0
 51 52  1  0
 52 53  2  0
 53 54  1  0
 54 55  2  0
 55 56  1  0
 56 57  2  0
 50 58  1  0
 58 59  2  0
 58 60  1  0
  8  4  1  0
 17 12  1  0
 23 18  1  0
 35 30  1  0
 46 41  1  0
 57 52  1  0
  9  6  1  0
 24 20  1  0
M  END
>  <Title>  (185) 
idAANQgen6

$$$$

     RDKit          2D

 29 33  0  0  0  0  0  0  0  0999 V2000
   -1.7691    4.1190    0.0000 O   0  0  0  0  0  0  0  0  0  0  0  0
   -3.2463    3.8586    0.0000 C   0  0  0  0  0  0  0  0  0  0  0  0
   -3.4031    2.3668    0.0000 N   0  0  0  0  0  0  0  0  0  0  0  0
   -2.1895    1.4851    0.0000 C   0  0  0  0  0  0  0  0  0  0  0  0
   -0.8192    2.0952    0.0000 C   0  0  0  0  0  0  0  0  0  0  0  0
    0.3943    1.2135    0.0000 C   0  0  0  0  0  0  0  0  0  0  0  0
    1.2760    0.0000    0.0000 C   0  0  0  0  0  0  0  0  0  0  0  0
    0.3943   -1.2135    0.0000 C   0  0  0  0  0  0  0  0  0  0  0  0
   -1.0323   -0.7500    0.0000 C   0  0  0  0  0  0  0  0  0  0  0  0
   -2.3463   -0.0067    0.0000 C   0  0  0  0  0  0  0  0  0  0  0  0
   -1.0323    0.7500    0.0000 N   0  0  0  0  0  0  0  0  0  0  0  0
   -2.2458    1.6317    0.0000 C   0  0  0  0  0  0  0  0  0  0  0  0
   -2.0890    3.1235    0.0000 C   0  0  0  0  0  0  0  0  0  0  0  0
   -3.3025    4.0051    0.0000 C   0  0  0  0  0  0  0  0  0  0  0  0
   -3.1458    5.4969    0.0000 C   0  0  0  0  0  0  0  0  0  0  0  0
   -4.3593    6.3786    0.0000 C   0  0  0  0  0  0  0  0  0  0  0  0
   -5.7296    5.7685    0.0000 C   0  0  0  0  0  0  0  0  0  0  0  0
   -5.8864    4.2767    0.0000 C   0  0  0  0  0  0  0  0  0  0  0  0
   -4.6729    3.3950    0.0000 C   0  0  0  0  0  0  0  0  0  0  0  0
   -4.4598    4.7402    0.0000 N   0  0  0  0  0  0  0  0  0  0  0  0
   -4.3030    6.2320    0.0000 C   0  0  0  0  0  0  0  0  0  0  0  0
   -2.8067    6.3367    0.0000 C   0  0  0  0  0  0  0  0  0  0  0  0
   -1.9679    5.0931    0.0000 C   0  0  0  0  0  0  0  0  0  0  0  0
   -0.4715    5.1977    0.0000 C   0  0  0  0  0  0  0  0  0  0  0  0
    0.1860    6.5459    0.0000 C   0  0  0  0  0  0  0  0  0  0  0  0
   -0.6528    7.7895    0.0000 C   0  0  0  0  0  0  0  0  0  0  0  0
   -2.1491    7.6848    0.0000 C   0  0  0  0  0  0  0  0  0  0  0  0
   -4.6659    7.6875    0.0000 C   0  0  0  0  0  0  0  0  0  0  0  0
   -5.7449    6.6455    0.0000 C   0  0  0  0  0  0  0  0  0  0  0  0
  1  2  2  0
  2  3  1  0
  3  4  1  0
  4  5  1  0
  5  6  1  0
  6  7  1  0
  7  8  1  0
  8  9  1  0
  9 10  1  0
  9 11  1  0
 11 12  1  0
 12 13  1  0
 13 14  1  0
 14 15  2  0
 15 16  1  0
 16 17  2  0
 17 18  1  0
 18 19  2  0
  2 20  1  0
 20 21  1  0
 21 22  1  0
 22 23  2  0
 23 24  1  0
 24 25  2  0
 25 26  1  0
 26 27  2  0
 21 28  1  0
 28 29  1  0
 10  4  1  0
 19 14  1  0
 29 21  1  0
 11  6  1  0
 27 22  1  0
M  END
>  <Title>  (186) 
idAANRgen6

$$$$

     RDKit          2D

 12 13  0  0  0  0  0  0  0  0999 V2000
    3.1700   -0.6078    0.0000 O   0  0  0  0  0  0  0  0  0  0  0  0
    2.9095   -2.0850    0.0000 C   0  0  0  0  0  0  0  0  0  0  0  0
    4.0586   -3.0492    0.0000 O   0  0  0  0  0  0  0  0  0  0  0  0
    1.5000   -2.5981    0.0000 C   0  0  0  0  0  0  0  0  0  0  0  0
    0.7500   -1.2990    0.0000 C   0  0  0  0  0  0  0  0  0  0  0  0
    1.5000    0.0000    0.0000 C   0  0  0  0  0  0  0  0  0  0  0  0
    0.7500    1.2990    0.0000 C   0  0  0  0  0  0  0  0  0  0  0  0
   -0.7500    1.2990    0.0000 C   0  0  0  0  0  0  0  0  0  0  0  0
   -1.5000    0.0000    0.0000 C   0  0  0  0  0  0  0  0  0  0  0  0
   -0.7500   -1.2990    0.0000 C   0  0  0  0  0  0  0  0  0  0  0  0
    1.7605   -4.0753    0.0000 C   0  0  0  0  0  0  0  0  0  0  0  0
    0.3509   -3.5623    0.0000 C   0  0  0  0  0  0  0  0  0  0  0  0
  1  2  2  0
  2  3  1  0
  2  4  1  0
  4  5  1  0
  5  6  2  0
  6  7  1  0
  7  8  2  0
  8  9  1  0
  9 10  2  0
  4 11  1  0
 11 12  1  0
 12  4  1  0
 10  5  1  0
M  END
>  <Title>  (187) 
idAANSgen6

$$$$

     RDKit          2D

 73 80  0  0  0  0  0  0  0  0999 V2000
   -2.7242    6.1936    0.0000 C   0  0  0  0  0  0  0  0  0  0  0  0
   -2.0134    4.8727    0.0000 O   0  0  0  0  0  0  0  0  0  0  0  0
   -2.8019    3.5967    0.0000 C   0  0  0  0  0  0  0  0  0  0  0  0
   -4.2675    3.2775    0.0000 O   0  0  0  0  0  0  0  0  0  0  0  0
   -2.0911    2.2758    0.0000 C   0  0  0  0  0  0  0  0  0  0  0  0
   -0.5926    2.3431    0.0000 C   0  0  0  0  0  0  0  0  0  0  0  0
    0.3943    1.2135    0.0000 C   0  0  0  0  0  0  0  0  0  0  0  0
    1.2760    0.0000    0.0000 C   0  0  0  0  0  0  0  0  0  0  0  0
    0.3943   -1.2135    0.0000 C   0  0  0  0  0  0  0  0  0  0  0  0
   -1.0323   -0.7500    0.0000 C   0  0  0  0  0  0  0  0  0  0  0  0
   -2.5737   -0.3836    0.0000 C   0  0  0  0  0  0  0  0  0  0  0  0
   -2.9728    1.0623    0.0000 C   0  0  0  0  0  0  0  0  0  0  0  0
   -4.4487    1.3301    0.0000 C   0  0  0  0  0  0  0  0  0  0  0  0
   -5.2813    2.5778    0.0000 O   0  0  0  0  0  0  0  0  0  0  0  0
   -5.4186    0.1859    0.0000 N   0  0  0  0  0  0  0  0  0  0  0  0
   -6.8945    0.4537    0.0000 C   0  0  0  0  0  0  0  0  0  0  0  0
   -7.8644   -0.6905    0.0000 C   0  0  0  0  0  0  0  0  0  0  0  0
   -9.3403   -0.4227    0.0000 C   0  0  0  0  0  0  0  0  0  0  0  0
   -9.8463    0.9894    0.0000 C   0  0  0  0  0  0  0  0  0  0  0  0
  -11.3221    1.2572    0.0000 C   0  0  0  0  0  0  0  0  0  0  0  0
  -12.2920    0.1130    0.0000 C   0  0  0  0  0  0  0  0  0  0  0  0
  -11.7861   -1.2991    0.0000 C   0  0  0  0  0  0  0  0  0  0  0  0
  -10.3102   -1.5669    0.0000 C   0  0  0  0  0  0  0  0  0  0  0  0
   -7.4005    1.8658    0.0000 C   0  0  0  0  0  0  0  0  0  0  0  0
   -6.1825    2.7414    0.0000 O   0  0  0  0  0  0  0  0  0  0  0  0
   -8.8764    2.1337    0.0000 O   0  0  0  0  0  0  0  0  0  0  0  0
   -1.0323    0.7500    0.0000 C   0  0  0  0  0  0  0  0  0  0  0  0
   -2.2458    1.6317    0.0000 C   0  0  0  0  0  0  0  0  0  0  0  0
   -2.0890    3.1235    0.0000 C   0  0  0  0  0  0  0  0  0  0  0  0
   -0.8033    3.8961    0.0000 O   0  0  0  0  0  0  0  0  0  0  0  0
   -3.3025    4.0051    0.0000 C   0  0  0  0  0  0  0  0  0  0  0  0
   -3.1458    5.4969    0.0000 C   0  0  0  0  0  0  0  0  0  0  0  0
   -4.3593    6.3786    0.0000 C   0  0  0  0  0  0  0  0  0  0  0  0
   -4.2025    7.8704    0.0000 C   0  0  0  0  0  0  0  0  0  0  0  0
   -5.4160    8.7521    0.0000 C   0  0  0  0  0  0  0  0  0  0  0  0
   -6.7863    8.1420    0.0000 C   0  0  0  0  0  0  0  0  0  0  0  0
   -6.9431    6.6502    0.0000 C   0  0  0  0  0  0  0  0  0  0  0  0
   -5.7296    5.7685    0.0000 C   0  0  0  0  0  0  0  0  0  0  0  0
   -4.6729    3.3950    0.0000 N   0  0  0  0  0  0  0  0  0  0  0  0
   -5.8864    4.2767    0.0000 C   0  0  0  0  0  0  0  0  0  0  0  0
   -6.0952    5.7621    0.0000 O   0  0  0  0  0  0  0  0  0  0  0  0
   -7.2567    3.6666    0.0000 C   0  0  0  0  0  0  0  0  0  0  0  0
   -7.4135    2.1748    0.0000 C   0  0  0  0  0  0  0  0  0  0  0  0
   -6.0432    2.7849    0.0000 C   0  0  0  0  0  0  0  0  0  0  0  0
   -5.8864    4.2767    0.0000 C   0  0  0  0  0  0  0  0  0  0  0  0
   -4.5161    4.8868    0.0000 N   0  0  0  0  0  0  0  0  0  0  0  0
   -4.3593    6.3786    0.0000 C   0  0  0  0  0  0  0  0  0  0  0  0
   -5.5728    7.2603    0.0000 O   0  0  0  0  0  0  0  0  0  0  0  0
   -2.9890    6.9887    0.0000 C   0  0  0  0  0  0  0  0  0  0  0  0
   -2.8322    8.4805    0.0000 C   0  0  0  0  0  0  0  0  0  0  0  0
   -1.4618    9.0906    0.0000 C   0  0  0  0  0  0  0  0  0  0  0  0
   -0.2483    8.2089    0.0000 C   0  0  0  0  0  0  0  0  0  0  0  0
    1.1220    8.8190    0.0000 C   0  0  0  0  0  0  0  0  0  0  0  0
    1.2788   10.3108    0.0000 C   0  0  0  0  0  0  0  0  0  0  0  0
    0.0653   11.1925    0.0000 C   0  0  0  0  0  0  0  0  0  0  0  0
   -1.3051   10.5824    0.0000 C   0  0  0  0  0  0  0  0  0  0  0  0
   -1.7754    6.1070    0.0000 C   0  0  0  0  0  0  0  0  0  0  0  0
   -1.5666    4.6216    0.0000 O   0  0  0  0  0  0  0  0  0  0  0  0
   -0.4051    6.7171    0.0000 N   0  0  0  0  0  0  0  0  0  0  0  0
    0.8084    5.8355    0.0000 C   0  0  0  0  0  0  0  0  0  0  0  0
    2.1787    6.4456    0.0000 C   0  0  0  0  0  0  0  0  0  0  0  0
    3.3923    5.5639    0.0000 C   0  0  0  0  0  0  0  0  0  0  0  0
    3.2355    4.0721    0.0000 C   0  0  0  0  0  0  0  0  0  0  0  0
    4.4490    3.1904    0.0000 C   0  0  0  0  0  0  0  0  0  0  0  0
    5.8193    3.8005    0.0000 C   0  0  0  0  0  0  0  0  0  0  0  0
    5.9761    5.2923    0.0000 C   0  0  0  0  0  0  0  0  0  0  0  0
    4.7626    6.1740    0.0000 C   0  0  0  0  0  0  0  0  0  0  0  0
    0.6516    4.3437    0.0000 C   0  0  0  0  0  0  0  0  0  0  0  0
   -0.7829    3.9052    0.0000 O   0  0  0  0  0  0  0  0  0  0  0  0
    1.8651    3.4620    0.0000 O   0  0  0  0  0  0  0  0  0  0  0  0
   -7.0999    5.1584    0.0000 C   0  0  0  0  0  0  0  0  0  0  0  0
   -8.4702    4.5483    0.0000 C   0  0  0  0  0  0  0  0  0  0  0  0
   -8.6270    3.0565    0.0000 C   0  0  0  0  0  0  0  0  0  0  0  0
  1  2  1  0
  2  3  1  0
  3  4  2  0
  3  5  1  0
  5  6  1  0
  6  7  1  0
  7  8  1  0
  8  9  1  0
  9 10  1  0
 10 11  1  0
 11 12  1  0
 12 13  1  0
 13 14  2  0
 13 15  1  0
 15 16  1  0
 16 17  1  0
 17 18  1  0
 18 19  2  0
 19 20  1  0
 20 21  2  0
 21 22  1  0
 22 23  2  0
 16 24  1  0
 24 25  2  0
 24 26  1  0
 10 27  1  0
 27 28  1  0
 28 29  1  0
 29 30  1  0
 29 31  1  0
 31 32  1  0
 32 33  1  0
 33 34  2  0
 34 35  1  0
 35 36  2  0
 36 37  1  0
 37 38  2  0
 31 39  1  0
 39 40  1  0
 40 41  2  0
 40 42  1  0
 42 43  1  0
 43 44  1  0
 44 45  1  0
 45 46  1  0
 46 47  1  0
 47 48  2  0
 47 49  1  0
 49 50  1  0
 50 51  1  0
 51 52  2  0
 52 53  1  0
 53 54  2  0
 54 55  1  0
 55 56  2  0
 49 57  1  0
 57 58  2  0
 57 59  1  0
 59 60  1  0
 60 61  1  0
 61 62  1  0
 62 63  2  0
 63 64  1  0
 64 65  2  0
 65 66  1  0
 66 67  2  0
 60 68  1  0
 68 69  2  0
 68 70  1  0
 45 71  1  0
 71 72  1  0
 72 73  1  0
 12  5  1  0
 23 18  1  0
 38 33  1  0
 72 42  1  0
 27  7  1  0
 73 43  1  0
 56 51  1  0
 67 62  1  0
M  END
>  <Title>  (188) 
idAANTgen6

$$$$

     RDKit          2D

 57 64  0  0  0  0  0  0  0  0999 V2000
   -2.1895    1.4851    0.0000 O   0  0  0  0  0  0  0  0  0  0  0  0
   -2.0328    2.9769    0.0000 C   0  0  0  0  0  0  0  0  0  0  0  0
   -0.6624    3.5870    0.0000 N   0  0  0  0  0  0  0  0  0  0  0  0
    0.5511    2.7053    0.0000 C   0  0  0  0  0  0  0  0  0  0  0  0
    1.9214    3.3154    0.0000 C   0  0  0  0  0  0  0  0  0  0  0  0
    3.1349    2.4337    0.0000 C   0  0  0  0  0  0  0  0  0  0  0  0
    2.9781    0.9420    0.0000 C   0  0  0  0  0  0  0  0  0  0  0  0
    4.1917    0.0603    0.0000 C   0  0  0  0  0  0  0  0  0  0  0  0
    5.5620    0.6704    0.0000 C   0  0  0  0  0  0  0  0  0  0  0  0
    5.7188    2.1622    0.0000 C   0  0  0  0  0  0  0  0  0  0  0  0
    4.5053    3.0438    0.0000 C   0  0  0  0  0  0  0  0  0  0  0  0
    0.3943    1.2135    0.0000 C   0  0  0  0  0  0  0  0  0  0  0  0
   -1.0829    0.9531    0.0000 O   0  0  0  0  0  0  0  0  0  0  0  0
    1.6078    0.3318    0.0000 N   0  0  0  0  0  0  0  0  0  0  0  0
    1.4510   -1.1599    0.0000 C   0  0  0  0  0  0  0  0  0  0  0  0
    2.6646   -2.0416    0.0000 C   0  0  0  0  0  0  0  0  0  0  0  0
    2.5078   -3.5334    0.0000 C   0  0  0  0  0  0  0  0  0  0  0  0
    1.1374   -4.1435    0.0000 C   0  0  0  0  0  0  0  0  0  0  0  0
    0.9807   -5.6353    0.0000 C   0  0  0  0  0  0  0  0  0  0  0  0
    2.1942   -6.5170    0.0000 C   0  0  0  0  0  0  0  0  0  0  0  0
    3.5645   -5.9069    0.0000 C   0  0  0  0  0  0  0  0  0  0  0  0
    3.7213   -4.4151    0.0000 C   0  0  0  0  0  0  0  0  0  0  0  0
    0.0807   -1.7700    0.0000 C   0  0  0  0  0  0  0  0  0  0  0  0
   -0.8834   -0.6209    0.0000 O   0  0  0  0  0  0  0  0  0  0  0  0
   -0.0761   -3.2618    0.0000 O   0  0  0  0  0  0  0  0  0  0  0  0
   -3.2463    3.8586    0.0000 C   0  0  0  0  0  0  0  0  0  0  0  0
   -3.0895    5.3503    0.0000 C   0  0  0  0  0  0  0  0  0  0  0  0
   -4.3030    6.2320    0.0000 C   0  0  0  0  0  0  0  0  0  0  0  0
   -5.6733    5.6219    0.0000 C   0  0  0  0  0  0  0  0  0  0  0  0
   -5.8301    4.1301    0.0000 C   0  0  0  0  0  0  0  0  0  0  0  0
   -4.6166    3.2485    0.0000 C   0  0  0  0  0  0  0  0  0  0  0  0
   -4.4598    4.7402    0.0000 C   0  0  0  0  0  0  0  0  0  0  0  0
   -3.2463    3.8586    0.0000 C   0  0  0  0  0  0  0  0  0  0  0  0
   -1.8760    4.4687    0.0000 O   0  0  0  0  0  0  0  0  0  0  0  0
   -3.4031    2.3668    0.0000 N   0  0  0  0  0  0  0  0  0  0  0  0
   -2.1895    1.4851    0.0000 C   0  0  0  0  0  0  0  0  0  0  0  0
   -0.8192    2.0952    0.0000 C   0  0  0  0  0  0  0  0  0  0  0  0
    0.3943    1.2135    0.0000 C   0  0  0  0  0  0  0  0  0  0  0  0
    1.2760    0.0000    0.0000 C   0  0  0  0  0  0  0  0  0  0  0  0
    0.3943   -1.2135    0.0000 C   0  0  0  0  0  0  0  0  0  0  0  0
   -1.0323   -0.7500    0.0000 C   0  0  0  0  0  0  0  0  0  0  0  0
   -2.3463   -0.0067    0.0000 C   0  0  0  0  0  0  0  0  0  0  0  0
   -1.0323    0.7500    0.0000 N   0  0  0  0  0  0  0  0  0  0  0  0
   -2.2458    1.6317    0.0000 C   0  0  0  0  0  0  0  0  0  0  0  0
   -2.0890    3.1235    0.0000 C   0  0  0  0  0  0  0  0  0  0  0  0
   -3.3025    4.0051    0.0000 C   0  0  0  0  0  0  0  0  0  0  0  0
   -3.1458    5.4969    0.0000 C   0  0  0  0  0  0  0  0  0  0  0  0
   -4.3593    6.3786    0.0000 C   0  0  0  0  0  0  0  0  0  0  0  0
   -5.7296    5.7685    0.0000 C   0  0  0  0  0  0  0  0  0  0  0  0
   -6.9431    6.6502    0.0000 C   0  0  0  0  0  0  0  0  0  0  0  0
   -6.7863    8.1420    0.0000 C   0  0  0  0  0  0  0  0  0  0  0  0
   -7.9999    9.0236    0.0000 C   0  0  0  0  0  0  0  0  0  0  0  0
   -9.3702    8.4135    0.0000 C   0  0  0  0  0  0  0  0  0  0  0  0
   -9.5270    6.9217    0.0000 C   0  0  0  0  0  0  0  0  0  0  0  0
   -8.3134    6.0401    0.0000 C   0  0  0  0  0  0  0  0  0  0  0  0
   -5.8864    4.2767    0.0000 C   0  0  0  0  0  0  0  0  0  0  0  0
   -4.6729    3.3950    0.0000 C   0  0  0  0  0  0  0  0  0  0  0  0
  1  2  2  0
  2  3  1  0
  3  4  1  0
  4  5  1  0
  5  6  1  0
  6  7  2  0
  7  8  1  0
  8  9  2  0
  9 10  1  0
 10 11  2  0
  4 12  1  0
 12 13  2  0
 12 14  1  0
 14 15  1  0
 15 16  1  0
 16 17  1  0
 17 18  2  0
 18 19  1  0
 19 20  2  0
 20 21  1  0
 21 22  2  0
 15 23  1  0
 23 24  2  0
 23 25  1  0
  2 26  1  0
 26 27  1  0
 27 28  1  0
 28 29  1  0
 29 30  1  0
 30 31  1  0
 30 32  1  0
 32 33  1  0
 33 34  2  0
 33 35  1  0
 35 36  1  0
 36 37  1  0
 37 38  1  0
 38 39  1  0
 39 40  1  0
 40 41  1  0
 41 42  1  0
 41 43  1  0
 43 44  1  0
 44 45  1  0
 45 46  1  0
 46 47  2  0
 47 48  1  0
 48 49  2  0
 49 50  1  0
 50 51  2  0
 51 52  1  0
 52 53  2  0
 53 54  1  0
 54 55  2  0
 49 56  1  0
 56 57  2  0
 11  6  1  0
 22 17  1  0
 31 26  1  0
 42 36  1  0
 57 46  1  0
 32 28  1  0
 43 38  1  0
 55 50  1  0
M  END
>  <Title>  (189) 
idAANUgen6

$$$$

     RDKit          2D

 31 33  0  0  0  0  0  0  0  0999 V2000
    4.0916    1.3399    0.0000 C   0  0  0  0  0  0  0  0  0  0  0  0
    3.9271    0.0000    0.0000 C   0  0  0  0  0  0  0  0  0  0  0  0
    3.9271   -1.5000    0.0000 C   0  0  0  0  0  0  0  0  0  0  0  0
    5.4271    0.0000    0.0000 C   0  0  0  0  0  0  0  0  0  0  0  0
    2.4271    0.0000    0.0000 C   0  0  0  0  0  0  0  0  0  0  0  0
    1.9635   -1.4266    0.0000 C   0  0  0  0  0  0  0  0  0  0  0  0
    0.7500   -2.3083    0.0000 C   0  0  0  0  0  0  0  0  0  0  0  0
   -0.7500   -2.3083    0.0000 C   0  0  0  0  0  0  0  0  0  0  0  0
   -1.2135   -3.7348    0.0000 C   0  0  0  0  0  0  0  0  0  0  0  0
   -0.1293   -4.7714    0.0000 C   0  0  0  0  0  0  0  0  0  0  0  0
   -0.2638   -6.2654    0.0000 C   0  0  0  0  0  0  0  0  0  0  0  0
   -1.5157   -7.0917    0.0000 C   0  0  0  0  0  0  0  0  0  0  0  0
   -2.9422   -6.6282    0.0000 C   0  0  0  0  0  0  0  0  0  0  0  0
   -3.4693   -5.2239    0.0000 C   0  0  0  0  0  0  0  0  0  0  0  0
   -2.7000   -3.9362    0.0000 C   0  0  0  0  0  0  0  0  0  0  0  0
   -4.1265   -3.4727    0.0000 C   0  0  0  0  0  0  0  0  0  0  0  0
   -2.5655   -2.4422    0.0000 C   0  0  0  0  0  0  0  0  0  0  0  0
   -1.9635   -1.4266    0.0000 C   0  0  0  0  0  0  0  0  0  0  0  0
   -2.4271    0.0000    0.0000 C   0  0  0  0  0  0  0  0  0  0  0  0
   -3.9271    0.0000    0.0000 C   0  0  0  0  0  0  0  0  0  0  0  0
   -3.7703   -1.4918    0.0000 O   0  0  0  0  0  0  0  0  0  0  0  0
   -5.3943   -0.3119    0.0000 C   0  0  0  0  0  0  0  0  0  0  0  0
   -6.1443    0.9872    0.0000 C   0  0  0  0  0  0  0  0  0  0  0  0
   -5.1406    2.1019    0.0000 C   0  0  0  0  0  0  0  0  0  0  0  0
   -3.7703    1.4918    0.0000 C   0  0  0  0  0  0  0  0  0  0  0  0
   -1.9635    1.4266    0.0000 C   0  0  0  0  0  0  0  0  0  0  0  0
   -0.7500    2.3083    0.0000 C   0  0  0  0  0  0  0  0  0  0  0  0
    0.7500    2.3083    0.0000 C   0  0  0  0  0  0  0  0  0  0  0  0
    1.9635    1.4266    0.0000 C   0  0  0  0  0  0  0  0  0  0  0  0
    2.4271    2.8532    0.0000 C   0  0  0  0  0  0  0  0  0  0  0  0
    3.3035    1.5911    0.0000 C   0  0  0  0  0  0  0  0  0  0  0  0
  1  2  1  0
  2  3  1  0
  2  4  1  0
  2  5  1  0
  5  6  1  0
  6  7  1  0
  7  8  1  0
  8  9  1  0
  9 10  1  0
 10 11  1  0
 11 12  1  0
 12 13  1  0
 13 14  1  0
 14 15  1  0
 15 16  1  0
 15 17  1  0
  8 18  1  0
 18 19  1  0
 19 20  1  0
 20 21  1  0
 20 22  1  0
 22 23  1  0
 23 24  1  0
 24 25  1  0
 19 26  1  0
 26 27  1  0
 27 28  1  0
 28 29  1  0
 29 30  1  0
 29 31  1  0
 29  5  1  0
 15  9  1  0
 25 20  1  0
M  END
>  <Title>  (190) 
idAANVgen6

$$$$

     RDKit          2D

 68 74  0  0  0  0  0  0  0  0999 V2000
    2.9888   -2.4152    0.0000 O   0  0  0  0  0  0  0  0  0  0  0  0
    1.5000   -2.5981    0.0000 C   0  0  0  0  0  0  0  0  0  0  0  0
    0.7500   -3.8971    0.0000 N   0  0  0  0  0  0  0  0  0  0  0  0
    1.5000   -5.1962    0.0000 C   0  0  0  0  0  0  0  0  0  0  0  0
    0.7500   -6.4952    0.0000 C   0  0  0  0  0  0  0  0  0  0  0  0
    1.5000   -7.7942    0.0000 C   0  0  0  0  0  0  0  0  0  0  0  0
    0.7500   -9.0933    0.0000 C   0  0  0  0  0  0  0  0  0  0  0  0
    1.5000  -10.3923    0.0000 C   0  0  0  0  0  0  0  0  0  0  0  0
    3.0000  -10.3923    0.0000 C   0  0  0  0  0  0  0  0  0  0  0  0
    3.7500   -9.0933    0.0000 C   0  0  0  0  0  0  0  0  0  0  0  0
    3.0000   -7.7942    0.0000 C   0  0  0  0  0  0  0  0  0  0  0  0
    3.0000   -5.1962    0.0000 C   0  0  0  0  0  0  0  0  0  0  0  0
    3.7500   -3.8971    0.0000 O   0  0  0  0  0  0  0  0  0  0  0  0
    3.7500   -6.4952    0.0000 N   0  0  0  0  0  0  0  0  0  0  0  0
    5.2500   -6.4952    0.0000 C   0  0  0  0  0  0  0  0  0  0  0  0
    6.0000   -7.7942    0.0000 C   0  0  0  0  0  0  0  0  0  0  0  0
    7.5000   -7.7942    0.0000 C   0  0  0  0  0  0  0  0  0  0  0  0
    8.2500   -9.0933    0.0000 C   0  0  0  0  0  0  0  0  0  0  0  0
    9.7500   -9.0933    0.0000 C   0  0  0  0  0  0  0  0  0  0  0  0
   10.5000   -7.7942    0.0000 C   0  0  0  0  0  0  0  0  0  0  0  0
    9.7500   -6.4952    0.0000 C   0  0  0  0  0  0  0  0  0  0  0  0
    8.2500   -6.4952    0.0000 C   0  0  0  0  0  0  0  0  0  0  0  0
    6.0000   -5.1962    0.0000 C   0  0  0  0  0  0  0  0  0  0  0  0
    5.5866   -3.7542    0.0000 O   0  0  0  0  0  0  0  0  0  0  0  0
    7.4554   -4.8332    0.0000 O   0  0  0  0  0  0  0  0  0  0  0  0
    0.7500   -1.2990    0.0000 C   0  0  0  0  0  0  0  0  0  0  0  0
    1.5000    0.0000    0.0000 C   0  0  0  0  0  0  0  0  0  0  0  0
    0.7500    1.2990    0.0000 C   0  0  0  0  0  0  0  0  0  0  0  0
   -0.7500    1.2990    0.0000 C   0  0  0  0  0  0  0  0  0  0  0  0
   -1.5000    0.0000    0.0000 C   0  0  0  0  0  0  0  0  0  0  0  0
   -0.7500   -1.2990    0.0000 C   0  0  0  0  0  0  0  0  0  0  0  0
   -0.0000   -0.0000    0.0000 C   0  0  0  0  0  0  0  0  0  0  0  0
    0.7500   -1.2990    0.0000 C   0  0  0  0  0  0  0  0  0  0  0  0
    2.2500   -1.2990    0.0000 O   0  0  0  0  0  0  0  0  0  0  0  0
   -0.0000   -2.5981    0.0000 N   0  0  0  0  0  0  0  0  0  0  0  0
    0.7500   -3.8971    0.0000 C   0  0  0  0  0  0  0  0  0  0  0  0
   -0.0000   -5.1962    0.0000 C   0  0  0  0  0  0  0  0  0  0  0  0
    0.7500   -6.4952    0.0000 C   0  0  0  0  0  0  0  0  0  0  0  0
   -0.0000   -7.7942    0.0000 C   0  0  0  0  0  0  0  0  0  0  0  0
    0.7500   -9.0933    0.0000 C   0  0  0  0  0  0  0  0  0  0  0  0
    2.2500   -9.0933    0.0000 C   0  0  0  0  0  0  0  0  0  0  0  0
    3.0000   -7.7942    0.0000 C   0  0  0  0  0  0  0  0  0  0  0  0
    2.2500   -6.4952    0.0000 C   0  0  0  0  0  0  0  0  0  0  0  0
    2.2500   -3.8971    0.0000 C   0  0  0  0  0  0  0  0  0  0  0  0
    3.1528   -2.6992    0.0000 O   0  0  0  0  0  0  0  0  0  0  0  0
    3.0000   -5.1962    0.0000 N   0  0  0  0  0  0  0  0  0  0  0  0
    4.5000   -5.1962    0.0000 C   0  0  0  0  0  0  0  0  0  0  0  0
    5.2500   -6.4952    0.0000 C   0  0  0  0  0  0  0  0  0  0  0  0
    6.7500   -6.4952    0.0000 C   0  0  0  0  0  0  0  0  0  0  0  0
    7.5000   -7.7942    0.0000 C   0  0  0  0  0  0  0  0  0  0  0  0
    9.0000   -7.7942    0.0000 C   0  0  0  0  0  0  0  0  0  0  0  0
    9.7500   -6.4952    0.0000 C   0  0  0  0  0  0  0  0  0  0  0  0
    9.0000   -5.1962    0.0000 C   0  0  0  0  0  0  0  0  0  0  0  0
    7.5000   -5.1962    0.0000 C   0  0  0  0  0  0  0  0  0  0  0  0
    5.2500   -3.8971    0.0000 C   0  0  0  0  0  0  0  0  0  0  0  0
    4.5000   -2.5981    0.0000 O   0  0  0  0  0  0  0  0  0  0  0  0
    6.7500   -3.8971    0.0000 N   0  0  0  0  0  0  0  0  0  0  0  0
    7.5000   -2.5981    0.0000 C   0  0  0  0  0  0  0  0  0  0  0  0
    9.0000   -2.5981    0.0000 C   0  0  0  0  0  0  0  0  0  0  0  0
    9.7500   -1.2990    0.0000 C   0  0  0  0  0  0  0  0  0  0  0  0
   11.2500   -1.2990    0.0000 C   0  0  0  0  0  0  0  0  0  0  0  0
   12.0000   -0.0000    0.0000 C   0  0  0  0  0  0  0  0  0  0  0  0
   11.2500    1.2990    0.0000 C   0  0  0  0  0  0  0  0  0  0  0  0
    9.7500    1.2990    0.0000 C   0  0  0  0  0  0  0  0  0  0  0  0
    9.0000   -0.0000    0.0000 C   0  0  0  0  0  0  0  0  0  0  0  0
    6.7500   -1.2990    0.0000 C   0  0  0  0  0  0  0  0  0  0  0  0
    5.2500   -1.2990    0.0000 O   0  0  0  0  0  0  0  0  0  0  0  0
    7.5000   -0.0000    0.0000 O   0  0  0  0  0  0  0  0  0  0  0  0
  1  2  2  0
  2  3  1  0
  3  4  1  0
  4  5  1  0
  5  6  1  0
  6  7  2  0
  7  8  1  0
  8  9  2  0
  9 10  1  0
 10 11  2  0
  4 12  1  0
 12 13  2  0
 12 14  1  0
 14 15  1  0
 15 16  1  0
 16 17  1  0
 17 18  2  0
 18 19  1  0
 19 20  2  0
 20 21  1  0
 21 22  2  0
 15 23  1  0
 23 24  2  0
 23 25  1  0
  2 26  1  0
 26 27  1  0
 27 28  1  0
 28 29  1  0
 29 30  1  0
 30 31  1  0
 30 32  1  0
 32 33  1  0
 33 34  2  0
 33 35  1  0
 35 36  1  0
 36 37  1  0
 37 38  1  0
 38 39  2  0
 39 40  1  0
 40 41  2  0
 41 42  1  0
 42 43  2  0
 36 44  1  0
 44 45  2  0
 44 46  1  0
 46 47  1  0
 47 48  1  0
 48 49  1  0
 49 50  2  0
 50 51  1  0
 51 52  2  0
 52 53  1  0
 53 54  2  0
 47 55  1  0
 55 56  2  0
 55 57  1  0
 57 58  1  0
 58 59  1  0
 59 60  1  0
 60 61  2  0
 61 62  1  0
 62 63  2  0
 63 64  1  0
 64 65  2  0
 58 66  1  0
 66 67  2  0
 66 68  1  0
 11  6  1  0
 22 17  1  0
 31 26  1  0
 43 38  1  0
 54 49  1  0
 65 60  1  0
 32 28  1  0
M  END
>  <Title>  (191) 
idAANWgen6

$$$$

     RDKit          2D

 58 64  0  0  0  0  0  0  0  0999 V2000
    2.9888   -2.4152    0.0000 O   0  0  0  0  0  0  0  0  0  0  0  0
    1.5000   -2.5981    0.0000 C   0  0  0  0  0  0  0  0  0  0  0  0
    0.7500   -3.8971    0.0000 N   0  0  0  0  0  0  0  0  0  0  0  0
    1.5000   -5.1962    0.0000 C   0  0  0  0  0  0  0  0  0  0  0  0
    1.1118   -6.6450    0.0000 C   0  0  0  0  0  0  0  0  0  0  0  0
    2.5607   -7.0333    0.0000 C   0  0  0  0  0  0  0  0  0  0  0  0
    2.9489   -5.5844    0.0000 C   0  0  0  0  0  0  0  0  0  0  0  0
    4.3978   -5.9726    0.0000 C   0  0  0  0  0  0  0  0  0  0  0  0
    5.4584   -4.9119    0.0000 O   0  0  0  0  0  0  0  0  0  0  0  0
    4.7860   -7.4215    0.0000 N   0  0  0  0  0  0  0  0  0  0  0  0
    6.2349   -7.8097    0.0000 C   0  0  0  0  0  0  0  0  0  0  0  0
    7.2956   -6.7491    0.0000 C   0  0  0  0  0  0  0  0  0  0  0  0
    6.9073   -5.3002    0.0000 O   0  0  0  0  0  0  0  0  0  0  0  0
    8.7444   -7.1373    0.0000 N   0  0  0  0  0  0  0  0  0  0  0  0
    9.8051   -6.0766    0.0000 C   0  0  0  0  0  0  0  0  0  0  0  0
   11.2540   -6.4649    0.0000 C   0  0  0  0  0  0  0  0  0  0  0  0
   12.3147   -5.4042    0.0000 C   0  0  0  0  0  0  0  0  0  0  0  0
   13.7635   -5.7924    0.0000 C   0  0  0  0  0  0  0  0  0  0  0  0
   14.8242   -4.7318    0.0000 C   0  0  0  0  0  0  0  0  0  0  0  0
   14.4360   -3.2829    0.0000 C   0  0  0  0  0  0  0  0  0  0  0  0
   12.9871   -2.8947    0.0000 C   0  0  0  0  0  0  0  0  0  0  0  0
   11.9264   -3.9553    0.0000 C   0  0  0  0  0  0  0  0  0  0  0  0
    9.4169   -4.6277    0.0000 C   0  0  0  0  0  0  0  0  0  0  0  0
    7.9680   -4.2395    0.0000 O   0  0  0  0  0  0  0  0  0  0  0  0
   10.4775   -3.5671    0.0000 O   0  0  0  0  0  0  0  0  0  0  0  0
    6.6231   -9.2586    0.0000 C   0  0  0  0  0  0  0  0  0  0  0  0
    5.5625  -10.3193    0.0000 C   0  0  0  0  0  0  0  0  0  0  0  0
    5.9507  -11.7682    0.0000 C   0  0  0  0  0  0  0  0  0  0  0  0
    7.3996  -12.1564    0.0000 C   0  0  0  0  0  0  0  0  0  0  0  0
    8.4602  -11.0957    0.0000 C   0  0  0  0  0  0  0  0  0  0  0  0
    8.0720   -9.6468    0.0000 C   0  0  0  0  0  0  0  0  0  0  0  0
    3.3371   -4.1355    0.0000 C   0  0  0  0  0  0  0  0  0  0  0  0
    4.7860   -3.7473    0.0000 C   0  0  0  0  0  0  0  0  0  0  0  0
    5.1742   -2.2984    0.0000 C   0  0  0  0  0  0  0  0  0  0  0  0
    4.1136   -1.2377    0.0000 C   0  0  0  0  0  0  0  0  0  0  0  0
    2.6647   -1.6259    0.0000 C   0  0  0  0  0  0  0  0  0  0  0  0
    2.2765   -3.0748    0.0000 C   0  0  0  0  0  0  0  0  0  0  0  0
    0.7500   -1.2990    0.0000 C   0  0  0  0  0  0  0  0  0  0  0  0
    1.5000    0.0000    0.0000 C   0  0  0  0  0  0  0  0  0  0  0  0
    0.7500    1.2990    0.0000 C   0  0  0  0  0  0  0  0  0  0  0  0
   -0.7500    1.2990    0.0000 C   0  0  0  0  0  0  0  0  0  0  0  0
   -1.5000    0.0000    0.0000 C   0  0  0  0  0  0  0  0  0  0  0  0
   -0.7500   -1.2990    0.0000 C   0  0  0  0  0  0  0  0  0  0  0  0
   -0.0000   -0.0000    0.0000 C   0  0  0  0  0  0  0  0  0  0  0  0
    0.7500   -1.2990    0.0000 C   0  0  0  0  0  0  0  0  0  0  0  0
    2.2054   -0.9361    0.0000 O   0  0  0  0  0  0  0  0  0  0  0  0
   -0.0000   -2.5981    0.0000 N   0  0  0  0  0  0  0  0  0  0  0  0
    0.7500   -3.8971    0.0000 C   0  0  0  0  0  0  0  0  0  0  0  0
   -0.0000   -5.1962    0.0000 C   0  0  0  0  0  0  0  0  0  0  0  0
    0.7500   -6.4952    0.0000 C   0  0  0  0  0  0  0  0  0  0  0  0
   -0.0000   -7.7942    0.0000 C   0  0  0  0  0  0  0  0  0  0  0  0
    0.7500   -9.0933    0.0000 C   0  0  0  0  0  0  0  0  0  0  0  0
    2.2500   -9.0933    0.0000 C   0  0  0  0  0  0  0  0  0  0  0  0
    3.0000   -7.7942    0.0000 C   0  0  0  0  0  0  0  0  0  0  0  0
    2.2500   -6.4952    0.0000 C   0  0  0  0  0  0  0  0  0  0  0  0
    2.2500   -3.8971    0.0000 C   0  0  0  0  0  0  0  0  0  0  0  0
    3.1528   -2.6992    0.0000 O   0  0  0  0  0  0  0  0  0  0  0  0
    3.2920   -4.9761    0.0000 O   0  0  0  0  0  0  0  0  0  0  0  0
  1  2  2  0
  2  3  1  0
  3  4  1  0
  4  5  1  0
  5  6  1  0
  6  7  1  0
  7  8  1  0
  8  9  2  0
  8 10  1  0
 10 11  1  0
 11 12  1  0
 12 13  2  0
 12 14  1  0
 14 15  1  0
 15 16  1  0
 16 17  1  0
 17 18  2  0
 18 19  1  0
 19 20  2  0
 20 21  1  0
 21 22  2  0
 15 23  1  0
 23 24  2  0
 23 25  1  0
 11 26  1  0
 26 27  2  0
 27 28  1  0
 28 29  2  0
 29 30  1  0
 30 31  2  0
  7 32  1  0
 32 33  2  0
 33 34  1  0
 34 35  2  0
 35 36  1  0
 36 37  2  0
  2 38  1  0
 38 39  1  0
 39 40  1  0
 40 41  1  0
 41 42  1  0
 42 43  1  0
 42 44  1  0
 44 45  1  0
 45 46  2  0
 45 47  1  0
 47 48  1  0
 48 49  1  0
 49 50  1  0
 50 51  2  0
 51 52  1  0
 52 53  2  0
 53 54  1  0
 54 55  2  0
 48 56  1  0
 56 57  2  0
 56 58  1  0
  7  4  1  0
 22 17  1  0
 31 26  1  0
 37 32  1  0
 43 38  1  0
 55 50  1  0
 44 40  1  0
M  END
>  <Title>  (192) 
idAANXgen6

$$$$

     RDKit          2D

 36 41  0  0  0  0  0  0  0  0999 V2000
   -1.8760    4.4687    0.0000 O   0  0  0  0  0  0  0  0  0  0  0  0
   -3.2463    3.8586    0.0000 C   0  0  0  0  0  0  0  0  0  0  0  0
   -4.4598    4.7402    0.0000 N   0  0  0  0  0  0  0  0  0  0  0  0
   -4.3030    6.2320    0.0000 C   0  0  0  0  0  0  0  0  0  0  0  0
   -5.5165    7.1137    0.0000 C   0  0  0  0  0  0  0  0  0  0  0  0
   -6.5955    6.0717    0.0000 C   0  0  0  0  0  0  0  0  0  0  0  0
   -8.0374    6.4852    0.0000 C   0  0  0  0  0  0  0  0  0  0  0  0
   -9.1164    5.4432    0.0000 C   0  0  0  0  0  0  0  0  0  0  0  0
   -8.7536    3.9877    0.0000 C   0  0  0  0  0  0  0  0  0  0  0  0
   -7.3117    3.5743    0.0000 C   0  0  0  0  0  0  0  0  0  0  0  0
   -6.2327    4.6163    0.0000 C   0  0  0  0  0  0  0  0  0  0  0  0
   -6.3553    8.3573    0.0000 C   0  0  0  0  0  0  0  0  0  0  0  0
   -4.8590    8.4619    0.0000 C   0  0  0  0  0  0  0  0  0  0  0  0
   -3.4031    2.3668    0.0000 N   0  0  0  0  0  0  0  0  0  0  0  0
   -2.1895    1.4851    0.0000 C   0  0  0  0  0  0  0  0  0  0  0  0
   -0.8192    2.0952    0.0000 C   0  0  0  0  0  0  0  0  0  0  0  0
    0.3943    1.2135    0.0000 C   0  0  0  0  0  0  0  0  0  0  0  0
    1.2760    0.0000    0.0000 C   0  0  0  0  0  0  0  0  0  0  0  0
    0.3943   -1.2135    0.0000 C   0  0  0  0  0  0  0  0  0  0  0  0
   -1.0323   -0.7500    0.0000 C   0  0  0  0  0  0  0  0  0  0  0  0
   -2.3463   -0.0067    0.0000 C   0  0  0  0  0  0  0  0  0  0  0  0
   -1.0323    0.7500    0.0000 N   0  0  0  0  0  0  0  0  0  0  0  0
   -2.2458    1.6317    0.0000 C   0  0  0  0  0  0  0  0  0  0  0  0
   -2.0890    3.1235    0.0000 C   0  0  0  0  0  0  0  0  0  0  0  0
   -3.3025    4.0051    0.0000 C   0  0  0  0  0  0  0  0  0  0  0  0
   -3.1458    5.4969    0.0000 C   0  0  0  0  0  0  0  0  0  0  0  0
   -4.3593    6.3786    0.0000 C   0  0  0  0  0  0  0  0  0  0  0  0
   -5.7296    5.7685    0.0000 C   0  0  0  0  0  0  0  0  0  0  0  0
   -6.9431    6.6502    0.0000 C   0  0  0  0  0  0  0  0  0  0  0  0
   -6.7863    8.1420    0.0000 C   0  0  0  0  0  0  0  0  0  0  0  0
   -7.9999    9.0236    0.0000 C   0  0  0  0  0  0  0  0  0  0  0  0
   -9.3702    8.4135    0.0000 C   0  0  0  0  0  0  0  0  0  0  0  0
   -9.5270    6.9217    0.0000 C   0  0  0  0  0  0  0  0  0  0  0  0
   -8.3134    6.0401    0.0000 C   0  0  0  0  0  0  0  0  0  0  0  0
   -5.8864    4.2767    0.0000 C   0  0  0  0  0  0  0  0  0  0  0  0
   -4.6729    3.3950    0.0000 C   0  0  0  0  0  0  0  0  0  0  0  0
  1  2  2  0
  2  3  1  0
  3  4  1  0
  4  5  1  0
  5  6  1  0
  6  7  2  0
  7  8  1  0
  8  9  2  0
  9 10  1  0
 10 11  2  0
  5 12  1  0
 12 13  1  0
  2 14  1  0
 14 15  1  0
 15 16  1  0
 16 17  1  0
 17 18  1  0
 18 19  1  0
 19 20  1  0
 20 21  1  0
 20 22  1  0
 22 23  1  0
 23 24  1  0
 24 25  1  0
 25 26  2  0
 26 27  1  0
 27 28  2  0
 28 29  1  0
 29 30  2  0
 30 31  1  0
 31 32  2  0
 32 33  1  0
 33 34  2  0
 28 35  1  0
 35 36  2  0
 13  5  1  0
 21 15  1  0
 36 25  1  0
 11  6  1  0
 22 17  1  0
 34 29  1  0
M  END
>  <Title>  (193) 
idAANYgen6

$$$$

     RDKit          2D

 30 34  0  0  0  0  0  0  0  0999 V2000
   -1.8760    4.4687    0.0000 O   0  0  0  0  0  0  0  0  0  0  0  0
   -3.2463    3.8586    0.0000 C   0  0  0  0  0  0  0  0  0  0  0  0
   -4.4598    4.7402    0.0000 N   0  0  0  0  0  0  0  0  0  0  0  0
   -4.3030    6.2320    0.0000 C   0  0  0  0  0  0  0  0  0  0  0  0
   -5.5165    7.1137    0.0000 C   0  0  0  0  0  0  0  0  0  0  0  0
   -6.5955    6.0717    0.0000 C   0  0  0  0  0  0  0  0  0  0  0  0
   -8.0374    6.4852    0.0000 C   0  0  0  0  0  0  0  0  0  0  0  0
   -9.1164    5.4432    0.0000 C   0  0  0  0  0  0  0  0  0  0  0  0
   -8.7536    3.9877    0.0000 C   0  0  0  0  0  0  0  0  0  0  0  0
   -7.3117    3.5743    0.0000 C   0  0  0  0  0  0  0  0  0  0  0  0
   -6.2327    4.6163    0.0000 C   0  0  0  0  0  0  0  0  0  0  0  0
   -6.3553    8.3573    0.0000 C   0  0  0  0  0  0  0  0  0  0  0  0
   -4.8590    8.4619    0.0000 C   0  0  0  0  0  0  0  0  0  0  0  0
   -3.4031    2.3668    0.0000 N   0  0  0  0  0  0  0  0  0  0  0  0
   -2.1895    1.4851    0.0000 C   0  0  0  0  0  0  0  0  0  0  0  0
   -0.8192    2.0952    0.0000 C   0  0  0  0  0  0  0  0  0  0  0  0
    0.3943    1.2135    0.0000 C   0  0  0  0  0  0  0  0  0  0  0  0
    1.2760    0.0000    0.0000 C   0  0  0  0  0  0  0  0  0  0  0  0
    0.3943   -1.2135    0.0000 C   0  0  0  0  0  0  0  0  0  0  0  0
   -1.0323   -0.7500    0.0000 C   0  0  0  0  0  0  0  0  0  0  0  0
   -2.3463   -0.0067    0.0000 C   0  0  0  0  0  0  0  0  0  0  0  0
   -1.0323    0.7500    0.0000 N   0  0  0  0  0  0  0  0  0  0  0  0
   -2.2458    1.6317    0.0000 C   0  0  0  0  0  0  0  0  0  0  0  0
   -2.0890    3.1235    0.0000 C   0  0  0  0  0  0  0  0  0  0  0  0
   -3.3025    4.0051    0.0000 C   0  0  0  0  0  0  0  0  0  0  0  0
   -3.1458    5.4969    0.0000 C   0  0  0  0  0  0  0  0  0  0  0  0
   -4.3593    6.3786    0.0000 C   0  0  0  0  0  0  0  0  0  0  0  0
   -5.7296    5.7685    0.0000 C   0  0  0  0  0  0  0  0  0  0  0  0
   -5.8864    4.2767    0.0000 C   0  0  0  0  0  0  0  0  0  0  0  0
   -4.6729    3.3950    0.0000 C   0  0  0  0  0  0  0  0  0  0  0  0
  1  2  2  0
  2  3  1  0
  3  4  1  0
  4  5  1  0
  5  6  1  0
  6  7  2  0
  7  8  1  0
  8  9  2  0
  9 10  1  0
 10 11  2  0
  5 12  1  0
 12 13  1  0
  2 14  1  0
 14 15  1  0
 15 16  1  0
 16 17  1  0
 17 18  1  0
 18 19  1  0
 19 20  1  0
 20 21  1  0
 20 22  1  0
 22 23  1  0
 23 24  1  0
 24 25  1  0
 25 26  2  0
 26 27  1  0
 27 28  2  0
 28 29  1  0
 29 30  2  0
 13  5  1  0
 21 15  1  0
 30 25  1  0
 11  6  1  0
 22 17  1  0
M  END
>  <Title>  (194) 
idAANZgen6

$$$$

     RDKit          2D

 61 69  0  0  0  0  0  0  0  0999 V2000
   -1.9605    4.6312    0.0000 O   0  0  0  0  0  0  0  0  0  0  0  0
   -3.2463    3.8586    0.0000 C   0  0  0  0  0  0  0  0  0  0  0  0
   -3.4031    2.3668    0.0000 N   0  0  0  0  0  0  0  0  0  0  0  0
   -2.1895    1.4851    0.0000 C   0  0  0  0  0  0  0  0  0  0  0  0
   -0.8192    2.0952    0.0000 C   0  0  0  0  0  0  0  0  0  0  0  0
    0.3943    1.2135    0.0000 C   0  0  0  0  0  0  0  0  0  0  0  0
    1.2760    0.0000    0.0000 C   0  0  0  0  0  0  0  0  0  0  0  0
    0.3943   -1.2135    0.0000 C   0  0  0  0  0  0  0  0  0  0  0  0
   -1.0323   -0.7500    0.0000 C   0  0  0  0  0  0  0  0  0  0  0  0
   -2.3463   -0.0067    0.0000 C   0  0  0  0  0  0  0  0  0  0  0  0
   -1.0323    0.7500    0.0000 N   0  0  0  0  0  0  0  0  0  0  0  0
   -2.2458    1.6317    0.0000 C   0  0  0  0  0  0  0  0  0  0  0  0
   -2.0890    3.1235    0.0000 C   0  0  0  0  0  0  0  0  0  0  0  0
   -3.3025    4.0051    0.0000 C   0  0  0  0  0  0  0  0  0  0  0  0
   -3.1458    5.4969    0.0000 C   0  0  0  0  0  0  0  0  0  0  0  0
   -4.3593    6.3786    0.0000 C   0  0  0  0  0  0  0  0  0  0  0  0
   -5.7296    5.7685    0.0000 C   0  0  0  0  0  0  0  0  0  0  0  0
   -5.8864    4.2767    0.0000 C   0  0  0  0  0  0  0  0  0  0  0  0
   -4.6729    3.3950    0.0000 C   0  0  0  0  0  0  0  0  0  0  0  0
   -4.4598    4.7402    0.0000 C   0  0  0  0  0  0  0  0  0  0  0  0
   -4.3030    6.2320    0.0000 C   0  0  0  0  0  0  0  0  0  0  0  0
   -5.5165    7.1137    0.0000 C   0  0  0  0  0  0  0  0  0  0  0  0
   -6.8869    6.5036    0.0000 C   0  0  0  0  0  0  0  0  0  0  0  0
   -7.0436    5.0118    0.0000 C   0  0  0  0  0  0  0  0  0  0  0  0
   -5.8301    4.1301    0.0000 C   0  0  0  0  0  0  0  0  0  0  0  0
   -5.6733    5.6219    0.0000 C   0  0  0  0  0  0  0  0  0  0  0  0
   -4.4598    4.7402    0.0000 C   0  0  0  0  0  0  0  0  0  0  0  0
   -3.2778    5.6638    0.0000 O   0  0  0  0  0  0  0  0  0  0  0  0
   -4.6166    3.2485    0.0000 N   0  0  0  0  0  0  0  0  0  0  0  0
   -3.4031    2.3668    0.0000 C   0  0  0  0  0  0  0  0  0  0  0  0
   -3.5599    0.8750    0.0000 C   0  0  0  0  0  0  0  0  0  0  0  0
   -2.3463   -0.0067    0.0000 C   0  0  0  0  0  0  0  0  0  0  0  0
   -2.5031   -1.4985    0.0000 C   0  0  0  0  0  0  0  0  0  0  0  0
   -1.2896   -2.3801    0.0000 C   0  0  0  0  0  0  0  0  0  0  0  0
    0.0807   -1.7700    0.0000 C   0  0  0  0  0  0  0  0  0  0  0  0
    0.2375   -0.2783    0.0000 C   0  0  0  0  0  0  0  0  0  0  0  0
   -0.9760    0.6034    0.0000 C   0  0  0  0  0  0  0  0  0  0  0  0
   -2.0328    2.9769    0.0000 C   0  0  0  0  0  0  0  0  0  0  0  0
   -1.6953    4.4384    0.0000 O   0  0  0  0  0  0  0  0  0  0  0  0
   -0.8192    2.0952    0.0000 N   0  0  0  0  0  0  0  0  0  0  0  0
    0.5511    2.7053    0.0000 C   0  0  0  0  0  0  0  0  0  0  0  0
    1.7646    1.8236    0.0000 C   0  0  0  0  0  0  0  0  0  0  0  0
    3.1349    2.4337    0.0000 C   0  0  0  0  0  0  0  0  0  0  0  0
    3.2917    3.9255    0.0000 C   0  0  0  0  0  0  0  0  0  0  0  0
    2.0782    4.8072    0.0000 C   0  0  0  0  0  0  0  0  0  0  0  0
    0.7079    4.1971    0.0000 C   0  0  0  0  0  0  0  0  0  0  0  0
    1.9214    3.3154    0.0000 C   0  0  0  0  0  0  0  0  0  0  0  0
    0.5511    2.7053    0.0000 C   0  0  0  0  0  0  0  0  0  0  0  0
    0.7599    1.2199    0.0000 O   0  0  0  0  0  0  0  0  0  0  0  0
   -0.6624    3.5870    0.0000 N   0  0  0  0  0  0  0  0  0  0  0  0
   -2.0328    2.9769    0.0000 C   0  0  0  0  0  0  0  0  0  0  0  0
   -3.2463    3.8586    0.0000 C   0  0  0  0  0  0  0  0  0  0  0  0
   -4.6166    3.2485    0.0000 C   0  0  0  0  0  0  0  0  0  0  0  0
   -5.8301    4.1301    0.0000 C   0  0  0  0  0  0  0  0  0  0  0  0
   -7.2004    3.5200    0.0000 C   0  0  0  0  0  0  0  0  0  0  0  0
   -7.3572    2.0282    0.0000 C   0  0  0  0  0  0  0  0  0  0  0  0
   -6.1437    1.1466    0.0000 C   0  0  0  0  0  0  0  0  0  0  0  0
   -4.7734    1.7567    0.0000 C   0  0  0  0  0  0  0  0  0  0  0  0
   -2.1895    1.4851    0.0000 C   0  0  0  0  0  0  0  0  0  0  0  0
   -0.7041    1.2765    0.0000 O   0  0  0  0  0  0  0  0  0  0  0  0
   -3.3715    0.5615    0.0000 O   0  0  0  0  0  0  0  0  0  0  0  0
  1  2  2  0
  2  3  1  0
  3  4  1  0
  4  5  1  0
  5  6  1  0
  6  7  1  0
  7  8  1  0
  8  9  1  0
  9 10  1  0
  9 11  1  0
 11 12  1  0
 12 13  1  0
 13 14  1  0
 14 15  2  0
 15 16  1  0
 16 17  2  0
 17 18  1  0
 18 19  2  0
  2 20  1  0
 20 21  1  0
 21 22  1  0
 22 23  1  0
 23 24  1  0
 24 25  1  0
 24 26  1  0
 26 27  1  0
 27 28  2  0
 27 29  1  0
 29 30  1  0
 30 31  1  0
 31 32  1  0
 32 33  2  0
 33 34  1  0
 34 35  2  0
 35 36  1  0
 36 37  2  0
 30 38  1  0
 38 39  2  0
 38 40  1  0
 40 41  1  0
 41 42  1  0
 42 43  1  0
 43 44  1  0
 44 45  1  0
 45 46  1  0
 45 47  1  0
 47 48  1  0
 48 49  2  0
 48 50  1  0
 50 51  1  0
 51 52  1  0
 52 53  1  0
 53 54  2  0
 54 55  1  0
 55 56  2  0
 56 57  1  0
 57 58  2  0
 51 59  1  0
 59 60  2  0
 59 61  1  0
 10  4  1  0
 19 14  1  0
 25 20  1  0
 37 32  1  0
 46 41  1  0
 58 53  1  0
 11  6  1  0
 26 22  1  0
 47 43  1  0
M  END
>  <Title>  (195) 
idAAOAgen6

$$$$

     RDKit          2D

 73 81  0  0  0  0  0  0  0  0999 V2000
   -7.0699    6.5116    0.0000 O   0  0  0  0  0  0  0  0  0  0  0  0
   -7.0436    5.0118    0.0000 C   0  0  0  0  0  0  0  0  0  0  0  0
   -5.8301    4.1301    0.0000 N   0  0  0  0  0  0  0  0  0  0  0  0
   -4.4598    4.7402    0.0000 C   0  0  0  0  0  0  0  0  0  0  0  0
   -4.3030    6.2320    0.0000 C   0  0  0  0  0  0  0  0  0  0  0  0
   -2.9327    6.8421    0.0000 C   0  0  0  0  0  0  0  0  0  0  0  0
   -2.7759    8.3339    0.0000 C   0  0  0  0  0  0  0  0  0  0  0  0
   -1.4056    8.9440    0.0000 C   0  0  0  0  0  0  0  0  0  0  0  0
   -0.1921    8.0623    0.0000 C   0  0  0  0  0  0  0  0  0  0  0  0
   -0.3488    6.5706    0.0000 C   0  0  0  0  0  0  0  0  0  0  0  0
   -1.7192    5.9604    0.0000 C   0  0  0  0  0  0  0  0  0  0  0  0
   -3.2463    3.8586    0.0000 C   0  0  0  0  0  0  0  0  0  0  0  0
   -1.8760    4.4687    0.0000 O   0  0  0  0  0  0  0  0  0  0  0  0
   -3.4031    2.3668    0.0000 N   0  0  0  0  0  0  0  0  0  0  0  0
   -2.1895    1.4851    0.0000 C   0  0  0  0  0  0  0  0  0  0  0  0
   -0.8192    2.0952    0.0000 C   0  0  0  0  0  0  0  0  0  0  0  0
    0.3943    1.2135    0.0000 C   0  0  0  0  0  0  0  0  0  0  0  0
    1.2760    0.0000    0.0000 C   0  0  0  0  0  0  0  0  0  0  0  0
    0.3943   -1.2135    0.0000 C   0  0  0  0  0  0  0  0  0  0  0  0
   -1.0323   -0.7500    0.0000 C   0  0  0  0  0  0  0  0  0  0  0  0
   -2.3463   -0.0067    0.0000 C   0  0  0  0  0  0  0  0  0  0  0  0
   -1.0323    0.7500    0.0000 N   0  0  0  0  0  0  0  0  0  0  0  0
   -2.2458    1.6317    0.0000 C   0  0  0  0  0  0  0  0  0  0  0  0
   -2.0890    3.1235    0.0000 C   0  0  0  0  0  0  0  0  0  0  0  0
   -3.3025    4.0051    0.0000 C   0  0  0  0  0  0  0  0  0  0  0  0
   -3.1458    5.4969    0.0000 C   0  0  0  0  0  0  0  0  0  0  0  0
   -4.3593    6.3786    0.0000 C   0  0  0  0  0  0  0  0  0  0  0  0
   -5.7296    5.7685    0.0000 C   0  0  0  0  0  0  0  0  0  0  0  0
   -5.8864    4.2767    0.0000 C   0  0  0  0  0  0  0  0  0  0  0  0
   -4.6729    3.3950    0.0000 C   0  0  0  0  0  0  0  0  0  0  0  0
   -8.4140    4.4017    0.0000 C   0  0  0  0  0  0  0  0  0  0  0  0
   -9.6275    5.2834    0.0000 C   0  0  0  0  0  0  0  0  0  0  0  0
  -10.9978    4.6733    0.0000 C   0  0  0  0  0  0  0  0  0  0  0  0
  -11.1546    3.1815    0.0000 C   0  0  0  0  0  0  0  0  0  0  0  0
   -9.9411    2.2998    0.0000 C   0  0  0  0  0  0  0  0  0  0  0  0
   -8.5708    2.9099    0.0000 C   0  0  0  0  0  0  0  0  0  0  0  0
   -9.7843    3.7916    0.0000 C   0  0  0  0  0  0  0  0  0  0  0  0
   -8.4140    4.4017    0.0000 C   0  0  0  0  0  0  0  0  0  0  0  0
   -8.2572    5.8935    0.0000 O   0  0  0  0  0  0  0  0  0  0  0  0
   -7.2004    3.5200    0.0000 N   0  0  0  0  0  0  0  0  0  0  0  0
   -5.8301    4.1301    0.0000 C   0  0  0  0  0  0  0  0  0  0  0  0
   -4.6166    3.2485    0.0000 C   0  0  0  0  0  0  0  0  0  0  0  0
   -3.2463    3.8586    0.0000 C   0  0  0  0  0  0  0  0  0  0  0  0
   -2.0328    2.9769    0.0000 C   0  0  0  0  0  0  0  0  0  0  0  0
   -0.6624    3.5870    0.0000 C   0  0  0  0  0  0  0  0  0  0  0  0
   -0.5056    5.0788    0.0000 C   0  0  0  0  0  0  0  0  0  0  0  0
   -1.7192    5.9604    0.0000 C   0  0  0  0  0  0  0  0  0  0  0  0
   -3.0895    5.3503    0.0000 C   0  0  0  0  0  0  0  0  0  0  0  0
   -5.6733    5.6219    0.0000 C   0  0  0  0  0  0  0  0  0  0  0  0
   -6.7703    6.6449    0.0000 O   0  0  0  0  0  0  0  0  0  0  0  0
   -4.3030    6.2320    0.0000 N   0  0  0  0  0  0  0  0  0  0  0  0
   -4.1462    7.7238    0.0000 C   0  0  0  0  0  0  0  0  0  0  0  0
   -2.7759    8.3339    0.0000 C   0  0  0  0  0  0  0  0  0  0  0  0
   -2.6191    9.8257    0.0000 C   0  0  0  0  0  0  0  0  0  0  0  0
   -1.2488   10.4358    0.0000 C   0  0  0  0  0  0  0  0  0  0  0  0
   -1.0920   11.9276    0.0000 C   0  0  0  0  0  0  0  0  0  0  0  0
   -2.3055   12.8093    0.0000 C   0  0  0  0  0  0  0  0  0  0  0  0
   -3.6758   12.1992    0.0000 C   0  0  0  0  0  0  0  0  0  0  0  0
   -3.8326   10.7074    0.0000 C   0  0  0  0  0  0  0  0  0  0  0  0
   -5.3597    8.6055    0.0000 C   0  0  0  0  0  0  0  0  0  0  0  0
   -6.7301    7.9954    0.0000 O   0  0  0  0  0  0  0  0  0  0  0  0
   -5.2030   10.0973    0.0000 N   0  0  0  0  0  0  0  0  0  0  0  0
   -6.4165   10.9789    0.0000 C   0  0  0  0  0  0  0  0  0  0  0  0
   -6.2597   12.4707    0.0000 C   0  0  0  0  0  0  0  0  0  0  0  0
   -7.4732   13.3524    0.0000 C   0  0  0  0  0  0  0  0  0  0  0  0
   -7.3164   14.8442    0.0000 C   0  0  0  0  0  0  0  0  0  0  0  0
   -8.5299   15.7259    0.0000 C   0  0  0  0  0  0  0  0  0  0  0  0
   -9.9003   15.1158    0.0000 C   0  0  0  0  0  0  0  0  0  0  0  0
  -10.0571   13.6240    0.0000 C   0  0  0  0  0  0  0  0  0  0  0  0
   -8.8435   12.7423    0.0000 C   0  0  0  0  0  0  0  0  0  0  0  0
   -7.7868   10.3688    0.0000 C   0  0  0  0  0  0  0  0  0  0  0  0
   -7.9436    8.8771    0.0000 O   0  0  0  0  0  0  0  0  0  0  0  0
   -9.0003   11.2505    0.0000 O   0  0  0  0  0  0  0  0  0  0  0  0
  1  2  2  0
  2  3  1  0
  3  4  1  0
  4  5  1  0
  5  6  1  0
  6  7  2  0
  7  8  1  0
  8  9  2  0
  9 10  1  0
 10 11  2  0
  4 12  1  0
 12 13  2  0
 12 14  1  0
 14 15  1  0
 15 16  1  0
 16 17  1  0
 17 18  1  0
 18 19  1  0
 19 20  1  0
 20 21  1  0
 20 22  1  0
 22 23  1  0
 23 24  1  0
 24 25  1  0
 25 26  2  0
 26 27  1  0
 27 28  2  0
 28 29  1  0
 29 30  2  0
  2 31  1  0
 31 32  1  0
 32 33  1  0
 33 34  1  0
 34 35  1  0
 35 36  1  0
 35 37  1  0
 37 38  1  0
 38 39  2  0
 38 40  1  0
 40 41  1  0
 41 42  1  0
 42 43  1  0
 43 44  2  0
 44 45  1  0
 45 46  2  0
 46 47  1  0
 47 48  2  0
 41 49  1  0
 49 50  2  0
 49 51  1  0
 51 52  1  0
 52 53  1  0
 53 54  1  0
 54 55  2  0
 55 56  1  0
 56 57  2  0
 57 58  1  0
 58 59  2  0
 52 60  1  0
 60 61  2  0
 60 62  1  0
 62 63  1  0
 63 64  1  0
 64 65  1  0
 65 66  2  0
 66 67  1  0
 67 68  2  0
 68 69  1  0
 69 70  2  0
 63 71  1  0
 71 72  2  0
 71 73  1  0
 11  6  1  0
 21 15  1  0
 30 25  1  0
 36 31  1  0
 48 43  1  0
 59 54  1  0
 70 65  1  0
 22 17  1  0
 37 33  1  0
M  END
>  <Title>  (196) 
idAAOBgen6

$$$$

     RDKit          2D

 22 23  0  0  0  0  0  0  0  0999 V2000
   -1.6531    8.5117    0.0000 C   0  0  0  0  0  0  0  0  0  0  0  0
   -0.2828    9.1218    0.0000 C   0  0  0  0  0  0  0  0  0  0  0  0
   -0.8929   10.4922    0.0000 C   0  0  0  0  0  0  0  0  0  0  0  0
    1.0876    9.7320    0.0000 C   0  0  0  0  0  0  0  0  0  0  0  0
    1.6977    8.3616    0.0000 C   0  0  0  0  0  0  0  0  0  0  0  0
    0.3273    7.7515    0.0000 C   0  0  0  0  0  0  0  0  0  0  0  0
   -1.0430    7.1414    0.0000 C   0  0  0  0  0  0  0  0  0  0  0  0
    0.9374    6.3812    0.0000 C   0  0  0  0  0  0  0  0  0  0  0  0
    0.0558    5.1677    0.0000 C   0  0  0  0  0  0  0  0  0  0  0  0
    0.6659    3.7974    0.0000 C   0  0  0  0  0  0  0  0  0  0  0  0
   -0.2158    2.5838    0.0000 C   0  0  0  0  0  0  0  0  0  0  0  0
   -1.7076    2.7406    0.0000 O   0  0  0  0  0  0  0  0  0  0  0  0
    0.3943    1.2135    0.0000 C   0  0  0  0  0  0  0  0  0  0  0  0
    1.6933    1.9635    0.0000 O   0  0  0  0  0  0  0  0  0  0  0  0
    1.2760    0.0000    0.0000 C   0  0  0  0  0  0  0  0  0  0  0  0
    0.3943   -1.2135    0.0000 C   0  0  0  0  0  0  0  0  0  0  0  0
   -1.0323   -0.7500    0.0000 C   0  0  0  0  0  0  0  0  0  0  0  0
   -1.0323    0.7500    0.0000 C   0  0  0  0  0  0  0  0  0  0  0  0
   -1.4360    5.3245    0.0000 C   0  0  0  0  0  0  0  0  0  0  0  0
   -2.3177    4.1110    0.0000 O   0  0  0  0  0  0  0  0  0  0  0  0
   -2.0461    6.6948    0.0000 C   0  0  0  0  0  0  0  0  0  0  0  0
   -3.5379    6.8516    0.0000 O   0  0  0  0  0  0  0  0  0  0  0  0
  1  2  1  0
  2  3  1  0
  2  4  1  0
  4  5  1  0
  5  6  1  0
  6  7  1  0
  6  8  1  0
  8  9  1  0
  9 10  1  0
 10 11  1  0
 11 12  1  0
 11 13  1  0
 13 14  1  0
 13 15  1  0
 15 16  1  0
 16 17  1  0
 17 18  1  0
  9 19  1  0
 19 20  1  0
 19 21  1  0
 21 22  1  0
  6  2  1  0
 18 13  1  0
M  END
>  <Title>  (197) 
idAAOCgen6

$$$$

     RDKit          2D

 52 56  0  0  0  0  0  0  0  0999 V2000
   -6.5278    4.5069    0.0000 C   0  0  0  0  0  0  0  0  0  0  0  0
   -6.4306    3.0101    0.0000 C   0  0  0  0  0  0  0  0  0  0  0  0
   -6.5165    1.5125    0.0000 C   0  0  0  0  0  0  0  0  0  0  0  0
   -7.9065    3.2779    0.0000 C   0  0  0  0  0  0  0  0  0  0  0  0
   -4.9547    2.7422    0.0000 N   0  0  0  0  0  0  0  0  0  0  0  0
   -4.4487    1.3301    0.0000 C   0  0  0  0  0  0  0  0  0  0  0  0
   -5.4186    0.1859    0.0000 O   0  0  0  0  0  0  0  0  0  0  0  0
   -2.9728    1.0623    0.0000 C   0  0  0  0  0  0  0  0  0  0  0  0
   -2.0911    2.2758    0.0000 C   0  0  0  0  0  0  0  0  0  0  0  0
   -0.5926    2.3431    0.0000 C   0  0  0  0  0  0  0  0  0  0  0  0
    0.3943    1.2135    0.0000 C   0  0  0  0  0  0  0  0  0  0  0  0
    1.2760    0.0000    0.0000 C   0  0  0  0  0  0  0  0  0  0  0  0
    0.3943   -1.2135    0.0000 C   0  0  0  0  0  0  0  0  0  0  0  0
   -1.0323   -0.7500    0.0000 C   0  0  0  0  0  0  0  0  0  0  0  0
   -2.5737   -0.3836    0.0000 C   0  0  0  0  0  0  0  0  0  0  0  0
   -1.0323    0.7500    0.0000 C   0  0  0  0  0  0  0  0  0  0  0  0
   -2.2458    1.6317    0.0000 C   0  0  0  0  0  0  0  0  0  0  0  0
   -3.7230    1.3713    0.0000 O   0  0  0  0  0  0  0  0  0  0  0  0
   -2.0890    3.1235    0.0000 N   0  0  0  0  0  0  0  0  0  0  0  0
   -3.3025    4.0051    0.0000 C   0  0  0  0  0  0  0  0  0  0  0  0
   -3.1458    5.4969    0.0000 C   0  0  0  0  0  0  0  0  0  0  0  0
   -4.3593    6.3786    0.0000 C   0  0  0  0  0  0  0  0  0  0  0  0
   -4.2025    7.8704    0.0000 C   0  0  0  0  0  0  0  0  0  0  0  0
   -5.4160    8.7521    0.0000 C   0  0  0  0  0  0  0  0  0  0  0  0
   -6.7863    8.1420    0.0000 C   0  0  0  0  0  0  0  0  0  0  0  0
   -6.9431    6.6502    0.0000 C   0  0  0  0  0  0  0  0  0  0  0  0
   -5.7296    5.7685    0.0000 C   0  0  0  0  0  0  0  0  0  0  0  0
   -4.6729    3.3950    0.0000 C   0  0  0  0  0  0  0  0  0  0  0  0
   -5.5118    2.1516    0.0000 O   0  0  0  0  0  0  0  0  0  0  0  0
   -5.8864    4.2767    0.0000 N   0  0  0  0  0  0  0  0  0  0  0  0
   -7.2567    3.6666    0.0000 C   0  0  0  0  0  0  0  0  0  0  0  0
   -8.4702    4.5483    0.0000 C   0  0  0  0  0  0  0  0  0  0  0  0
   -9.8406    3.9382    0.0000 C   0  0  0  0  0  0  0  0  0  0  0  0
  -11.0541    4.8199    0.0000 C   0  0  0  0  0  0  0  0  0  0  0  0
  -12.4244    4.2098    0.0000 C   0  0  0  0  0  0  0  0  0  0  0  0
  -12.5812    2.7180    0.0000 C   0  0  0  0  0  0  0  0  0  0  0  0
  -11.3677    1.8363    0.0000 C   0  0  0  0  0  0  0  0  0  0  0  0
   -9.9973    2.4464    0.0000 C   0  0  0  0  0  0  0  0  0  0  0  0
   -7.4135    2.1748    0.0000 C   0  0  0  0  0  0  0  0  0  0  0  0
   -6.3165    1.1518    0.0000 O   0  0  0  0  0  0  0  0  0  0  0  0
   -8.7838    1.5647    0.0000 N   0  0  0  0  0  0  0  0  0  0  0  0
   -8.9406    0.0729    0.0000 C   0  0  0  0  0  0  0  0  0  0  0  0
  -10.3109   -0.5372    0.0000 C   0  0  0  0  0  0  0  0  0  0  0  0
  -10.4677   -2.0290    0.0000 C   0  0  0  0  0  0  0  0  0  0  0  0
  -11.8380   -2.6391    0.0000 C   0  0  0  0  0  0  0  0  0  0  0  0
  -11.9948   -4.1308    0.0000 C   0  0  0  0  0  0  0  0  0  0  0  0
  -10.7813   -5.0125    0.0000 C   0  0  0  0  0  0  0  0  0  0  0  0
   -9.4110   -4.4024    0.0000 C   0  0  0  0  0  0  0  0  0  0  0  0
   -9.2542   -2.9106    0.0000 C   0  0  0  0  0  0  0  0  0  0  0  0
   -7.7271   -0.8087    0.0000 C   0  0  0  0  0  0  0  0  0  0  0  0
   -6.3568   -0.1986    0.0000 O   0  0  0  0  0  0  0  0  0  0  0  0
   -7.8839   -2.3005    0.0000 O   0  0  0  0  0  0  0  0  0  0  0  0
  1  2  1  0
  2  3  1  0
  2  4  1  0
  2  5  1  0
  5  6  1  0
  6  7  2  0
  6  8  1  0
  8  9  1  0
  9 10  1  0
 10 11  1  0
 11 12  1  0
 12 13  1  0
 13 14  1  0
 14 15  1  0
 14 16  1  0
 16 17  1  0
 17 18  2  0
 17 19  1  0
 19 20  1  0
 20 21  1  0
 21 22  1  0
 22 23  2  0
 23 24  1  0
 24 25  2  0
 25 26  1  0
 26 27  2  0
 20 28  1  0
 28 29  2  0
 28 30  1  0
 30 31  1  0
 31 32  1  0
 32 33  1  0
 33 34  2  0
 34 35  1  0
 35 36  2  0
 36 37  1  0
 37 38  2  0
 31 39  1  0
 39 40  2  0
 39 41  1  0
 41 42  1  0
 42 43  1  0
 43 44  1  0
 44 45  2  0
 45 46  1  0
 46 47  2  0
 47 48  1  0
 48 49  2  0
 42 50  1  0
 50 51  2  0
 50 52  1  0
 15  8  1  0
 27 22  1  0
 38 33  1  0
 49 44  1  0
 16 11  1  0
M  END
>  <Title>  (198) 
idAAODgen6

$$$$

     RDKit          2D

 45 49  0  0  0  0  0  0  0  0999 V2000
   -4.0223    2.4441    0.0000 C   0  0  0  0  0  0  0  0  0  0  0  0
   -2.5494    2.1602    0.0000 C   0  0  0  0  0  0  0  0  0  0  0  0
   -1.0516    2.2412    0.0000 C   0  0  0  0  0  0  0  0  0  0  0  0
   -2.2655    3.6331    0.0000 C   0  0  0  0  0  0  0  0  0  0  0  0
   -2.8333    0.6873    0.0000 C   0  0  0  0  0  0  0  0  0  0  0  0
   -4.3265    0.5448    0.0000 C   0  0  0  0  0  0  0  0  0  0  0  0
   -5.5055   -0.3825    0.0000 C   0  0  0  0  0  0  0  0  0  0  0  0
   -5.9961   -1.8000    0.0000 C   0  0  0  0  0  0  0  0  0  0  0  0
   -7.4944   -1.7286    0.0000 C   0  0  0  0  0  0  0  0  0  0  0  0
   -8.2088   -3.0476    0.0000 C   0  0  0  0  0  0  0  0  0  0  0  0
   -9.6855   -3.3114    0.0000 C   0  0  0  0  0  0  0  0  0  0  0  0
  -10.8124   -2.3214    0.0000 C   0  0  0  0  0  0  0  0  0  0  0  0
  -10.7410   -0.8231    0.0000 C   0  0  0  0  0  0  0  0  0  0  0  0
   -9.5251    0.0553    0.0000 C   0  0  0  0  0  0  0  0  0  0  0  0
   -8.0802   -0.3477    0.0000 C   0  0  0  0  0  0  0  0  0  0  0  0
   -8.0089    1.1506    0.0000 C   0  0  0  0  0  0  0  0  0  0  0  0
   -6.6036   -0.0839    0.0000 C   0  0  0  0  0  0  0  0  0  0  0  0
   -5.6425   -3.2577    0.0000 C   0  0  0  0  0  0  0  0  0  0  0  0
   -4.5569   -4.2928    0.0000 C   0  0  0  0  0  0  0  0  0  0  0  0
   -5.2442   -5.6261    0.0000 C   0  0  0  0  0  0  0  0  0  0  0  0
   -4.3412   -6.8238    0.0000 C   0  0  0  0  0  0  0  0  0  0  0  0
   -4.7147   -8.2766    0.0000 C   0  0  0  0  0  0  0  0  0  0  0  0
   -6.0833   -8.8904    0.0000 C   0  0  0  0  0  0  0  0  0  0  0  0
   -7.4166   -8.2031    0.0000 C   0  0  0  0  0  0  0  0  0  0  0  0
   -7.7105   -6.7322    0.0000 C   0  0  0  0  0  0  0  0  0  0  0  0
   -6.7437   -5.5853    0.0000 C   0  0  0  0  0  0  0  0  0  0  0  0
   -8.0769   -4.8979    0.0000 C   0  0  0  0  0  0  0  0  0  0  0  0
   -6.3703   -4.1325    0.0000 C   0  0  0  0  0  0  0  0  0  0  0  0
   -3.0840   -4.5767    0.0000 C   0  0  0  0  0  0  0  0  0  0  0  0
   -1.6915   -4.0192    0.0000 C   0  0  0  0  0  0  0  0  0  0  0  0
   -0.8214   -2.7973    0.0000 C   0  0  0  0  0  0  0  0  0  0  0  0
   -0.7500   -1.2990    0.0000 C   0  0  0  0  0  0  0  0  0  0  0  0
    0.2851   -2.3846    0.0000 C   0  0  0  0  0  0  0  0  0  0  0  0
    0.7500   -1.2990    0.0000 C   0  0  0  0  0  0  0  0  0  0  0  0
    1.5000   -2.5981    0.0000 C   0  0  0  0  0  0  0  0  0  0  0  0
    3.0000   -2.5981    0.0000 C   0  0  0  0  0  0  0  0  0  0  0  0
    3.7500   -3.8971    0.0000 C   0  0  0  0  0  0  0  0  0  0  0  0
    5.2418   -4.0539    0.0000 C   0  0  0  0  0  0  0  0  0  0  0  0
    5.5537   -5.5211    0.0000 C   0  0  0  0  0  0  0  0  0  0  0  0
    4.2546   -6.2711    0.0000 C   0  0  0  0  0  0  0  0  0  0  0  0
    3.1399   -5.2674    0.0000 C   0  0  0  0  0  0  0  0  0  0  0  0
    1.5000    0.0000    0.0000 C   0  0  0  0  0  0  0  0  0  0  0  0
    0.7500    1.2990    0.0000 C   0  0  0  0  0  0  0  0  0  0  0  0
   -0.7500    1.2990    0.0000 C   0  0  0  0  0  0  0  0  0  0  0  0
   -1.5000    0.0000    0.0000 C   0  0  0  0  0  0  0  0  0  0  0  0
  1  2  1  0
  2  3  1  0
  2  4  1  0
  2  5  1  0
  5  6  1  0
  6  7  1  0
  7  8  1  0
  8  9  1  0
  9 10  1  0
 10 11  1  0
 11 12  1  0
 12 13  1  0
 13 14  1  0
 14 15  1  0
 15 16  1  0
 15 17  1  0
  8 18  1  0
 18 19  1  0
 19 20  1  0
 20 21  1  0
 21 22  1  0
 22 23  1  0
 23 24  1  0
 24 25  1  0
 25 26  1  0
 26 27  1  0
 26 28  1  0
 19 29  1  0
 29 30  1  0
 30 31  1  0
 31 32  1  0
 32 33  1  0
 32 34  1  0
 34 35  1  0
 35 36  1  0
 36 37  1  0
 37 38  1  0
 38 39  1  0
 39 40  1  0
 40 41  1  0
 34 42  1  0
 42 43  1  0
 43 44  1  0
 44 45  1  0
 45  5  1  0
 15  9  1  0
 26 20  1  0
 45 32  1  0
 41 37  1  0
M  END
>  <Title>  (199) 
idAAOEgen6

$$$$

     RDKit          2D

 14 15  0  0  0  0  0  0  0  0999 V2000
   -2.1513    4.1941    0.0000 C   0  0  0  0  0  0  0  0  0  0  0  0
   -2.8323    2.8576    0.0000 C   0  0  0  0  0  0  0  0  0  0  0  0
   -3.5133    1.5211    0.0000 C   0  0  0  0  0  0  0  0  0  0  0  0
   -4.1688    3.5386    0.0000 C   0  0  0  0  0  0  0  0  0  0  0  0
   -1.4958    2.1766    0.0000 C   0  0  0  0  0  0  0  0  0  0  0  0
   -0.0692    2.6401    0.0000 C   0  0  0  0  0  0  0  0  0  0  0  0
    0.3943    1.2135    0.0000 C   0  0  0  0  0  0  0  0  0  0  0  0
    1.7308    1.8945    0.0000 C   0  0  0  0  0  0  0  0  0  0  0  0
    1.8093    3.3925    0.0000 O   0  0  0  0  0  0  0  0  0  0  0  0
    2.9888    1.0776    0.0000 O   0  0  0  0  0  0  0  0  0  0  0  0
    1.2760    0.0000    0.0000 C   0  0  0  0  0  0  0  0  0  0  0  0
    0.3943   -1.2135    0.0000 C   0  0  0  0  0  0  0  0  0  0  0  0
   -1.0323   -0.7500    0.0000 C   0  0  0  0  0  0  0  0  0  0  0  0
   -1.0323    0.7500    0.0000 C   0  0  0  0  0  0  0  0  0  0  0  0
  1  2  1  0
  2  3  1  0
  2  4  1  0
  2  5  1  0
  5  6  1  0
  6  7  1  0
  7  8  1  0
  8  9  2  0
  8 10  1  0
  7 11  1  0
 11 12  1  0
 12 13  1  0
 13 14  1  0
 14  5  1  0
 14  7  1  0
M  END
>  <Title>  (200) 
idAAOFgen6

$$$$

     RDKit          2D

 34 36  0  0  0  0  0  0  0  0999 V2000
    3.0000    0.0000    0.0000 C   0  0  0  0  0  0  0  0  0  0  0  0
    1.5000    0.0000    0.0000 C   0  0  0  0  0  0  0  0  0  0  0  0
    0.7500   -1.2990    0.0000 C   0  0  0  0  0  0  0  0  0  0  0  0
   -0.7500   -1.2990    0.0000 C   0  0  0  0  0  0  0  0  0  0  0  0
   -1.5000    0.0000    0.0000 C   0  0  0  0  0  0  0  0  0  0  0  0
   -3.0000    0.0000    0.0000 C   0  0  0  0  0  0  0  0  0  0  0  0
   -3.7500    1.2990    0.0000 N   0  0  0  0  0  0  0  0  0  0  0  0
   -5.2500    1.2990    0.0000 C   0  0  0  0  0  0  0  0  0  0  0  0
   -3.0000    2.5981    0.0000 C   0  0  0  0  0  0  0  0  0  0  0  0
   -1.5000    2.5981    0.0000 O   0  0  0  0  0  0  0  0  0  0  0  0
   -3.7500    3.8971    0.0000 C   0  0  0  0  0  0  0  0  0  0  0  0
   -3.0000    5.1962    0.0000 C   0  0  0  0  0  0  0  0  0  0  0  0
   -3.7500    6.4952    0.0000 C   0  0  0  0  0  0  0  0  0  0  0  0
   -3.0000    7.7942    0.0000 C   0  0  0  0  0  0  0  0  0  0  0  0
   -3.7500    9.0933    0.0000 C   0  0  0  0  0  0  0  0  0  0  0  0
   -5.2500    9.0933    0.0000 C   0  0  0  0  0  0  0  0  0  0  0  0
   -6.0000    7.7942    0.0000 C   0  0  0  0  0  0  0  0  0  0  0  0
   -5.2500    6.4952    0.0000 C   0  0  0  0  0  0  0  0  0  0  0  0
   -5.2500    3.8971    0.0000 C   0  0  0  0  0  0  0  0  0  0  0  0
   -6.0000    2.5981    0.0000 O   0  0  0  0  0  0  0  0  0  0  0  0
   -6.0000    5.1962    0.0000 N   0  0  0  0  0  0  0  0  0  0  0  0
   -7.5000    5.1962    0.0000 C   0  0  0  0  0  0  0  0  0  0  0  0
   -8.2500    6.4952    0.0000 C   0  0  0  0  0  0  0  0  0  0  0  0
   -9.7500    6.4952    0.0000 C   0  0  0  0  0  0  0  0  0  0  0  0
  -10.5000    7.7942    0.0000 C   0  0  0  0  0  0  0  0  0  0  0  0
  -12.0000    7.7942    0.0000 C   0  0  0  0  0  0  0  0  0  0  0  0
  -12.7500    6.4952    0.0000 C   0  0  0  0  0  0  0  0  0  0  0  0
  -12.0000    5.1962    0.0000 C   0  0  0  0  0  0  0  0  0  0  0  0
  -10.5000    5.1962    0.0000 C   0  0  0  0  0  0  0  0  0  0  0  0
   -8.2500    3.8971    0.0000 C   0  0  0  0  0  0  0  0  0  0  0  0
   -7.5000    2.5981    0.0000 O   0  0  0  0  0  0  0  0  0  0  0  0
   -9.7500    3.8971    0.0000 O   0  0  0  0  0  0  0  0  0  0  0  0
   -0.7500    1.2990    0.0000 C   0  0  0  0  0  0  0  0  0  0  0  0
    0.7500    1.2990    0.0000 C   0  0  0  0  0  0  0  0  0  0  0  0
  1  2  1  0
  2  3  2  0
  3  4  1  0
  4  5  2  0
  5  6  1  0
  6  7  1  0
  7  8  1  0
  7  9  1  0
  9 10  2  0
  9 11  1  0
 11 12  1  0
 12 13  1  0
 13 14  2  0
 14 15  1  0
 15 16  2  0
 16 17  1  0
 17 18  2  0
 11 19  1  0
 19 20  2  0
 19 21  1  0
 21 22  1  0
 22 23  1  0
 23 24  1  0
 24 25  2  0
 25 26  1  0
 26 27  2  0
 27 28  1  0
 28 29  2  0
 22 30  1  0
 30 31  2  0
 30 32  1  0
  5 33  1  0
 33 34  2  0
 34  2  1  0
 18 13  1  0
 29 24  1  0
M  END
>  <Title>  (201) 
idAAOGgen6

$$$$

     RDKit          2D

 59 65  0  0  0  0  0  0  0  0999 V2000
    2.3526   -7.9390    0.0000 O   0  0  0  0  0  0  0  0  0  0  0  0
    2.3787   -9.4388    0.0000 C   0  0  0  0  0  0  0  0  0  0  0  0
    1.6062  -10.7246    0.0000 O   0  0  0  0  0  0  0  0  0  0  0  0
    3.8276   -9.8270    0.0000 C   0  0  0  0  0  0  0  0  0  0  0  0
    4.2158  -11.2759    0.0000 C   0  0  0  0  0  0  0  0  0  0  0  0
    3.1551  -12.3366    0.0000 C   0  0  0  0  0  0  0  0  0  0  0  0
    1.7062  -11.9483    0.0000 C   0  0  0  0  0  0  0  0  0  0  0  0
    0.6456  -13.0090    0.0000 C   0  0  0  0  0  0  0  0  0  0  0  0
    1.0338  -14.4579    0.0000 C   0  0  0  0  0  0  0  0  0  0  0  0
    2.4827  -14.8461    0.0000 C   0  0  0  0  0  0  0  0  0  0  0  0
    3.5434  -13.7855    0.0000 C   0  0  0  0  0  0  0  0  0  0  0  0
    4.8882   -8.7664    0.0000 N   0  0  0  0  0  0  0  0  0  0  0  0
    4.5000   -7.3175    0.0000 C   0  0  0  0  0  0  0  0  0  0  0  0
    3.0146   -7.1088    0.0000 O   0  0  0  0  0  0  0  0  0  0  0  0
    5.5607   -6.2568    0.0000 C   0  0  0  0  0  0  0  0  0  0  0  0
    6.6213   -7.3175    0.0000 C   0  0  0  0  0  0  0  0  0  0  0  0
    6.2331   -8.7664    0.0000 C   0  0  0  0  0  0  0  0  0  0  0  0
    7.2938   -9.8270    0.0000 C   0  0  0  0  0  0  0  0  0  0  0  0
    8.7426   -9.4388    0.0000 C   0  0  0  0  0  0  0  0  0  0  0  0
    9.1309   -7.9899    0.0000 C   0  0  0  0  0  0  0  0  0  0  0  0
    8.0702   -6.9292    0.0000 C   0  0  0  0  0  0  0  0  0  0  0  0
    6.6213   -5.1962    0.0000 C   0  0  0  0  0  0  0  0  0  0  0  0
    5.5607   -4.1355    0.0000 C   0  0  0  0  0  0  0  0  0  0  0  0
    4.5000   -5.1962    0.0000 C   0  0  0  0  0  0  0  0  0  0  0  0
    3.0000   -5.1962    0.0000 N   0  0  0  0  0  0  0  0  0  0  0  0
    2.2500   -3.8971    0.0000 C   0  0  0  0  0  0  0  0  0  0  0  0
    3.0000   -2.5981    0.0000 O   0  0  0  0  0  0  0  0  0  0  0  0
    0.7500   -3.8971    0.0000 C   0  0  0  0  0  0  0  0  0  0  0  0
   -0.0000   -5.1962    0.0000 C   0  0  0  0  0  0  0  0  0  0  0  0
   -1.5000   -5.1962    0.0000 C   0  0  0  0  0  0  0  0  0  0  0  0
   -2.2500   -6.4952    0.0000 C   0  0  0  0  0  0  0  0  0  0  0  0
   -3.7500   -6.4952    0.0000 C   0  0  0  0  0  0  0  0  0  0  0  0
   -4.5000   -5.1962    0.0000 C   0  0  0  0  0  0  0  0  0  0  0  0
   -3.7500   -3.8971    0.0000 C   0  0  0  0  0  0  0  0  0  0  0  0
   -2.2500   -3.8971    0.0000 C   0  0  0  0  0  0  0  0  0  0  0  0
   -0.0000   -2.5981    0.0000 N   0  0  0  0  0  0  0  0  0  0  0  0
    0.7500   -1.2990    0.0000 C   0  0  0  0  0  0  0  0  0  0  0  0
    2.2500   -1.2990    0.0000 O   0  0  0  0  0  0  0  0  0  0  0  0
   -0.0000    0.0000    0.0000 C   0  0  0  0  0  0  0  0  0  0  0  0
   -1.5000    0.0000    0.0000 C   0  0  0  0  0  0  0  0  0  0  0  0
   -0.7500   -1.2990    0.0000 C   0  0  0  0  0  0  0  0  0  0  0  0
    0.7500   -1.2990    0.0000 C   0  0  0  0  0  0  0  0  0  0  0  0
    1.5000   -2.5981    0.0000 N   0  0  0  0  0  0  0  0  0  0  0  0
    0.7500   -3.8971    0.0000 C   0  0  0  0  0  0  0  0  0  0  0  0
   -0.7500   -3.8971    0.0000 O   0  0  0  0  0  0  0  0  0  0  0  0
    1.5000   -5.1962    0.0000 C   0  0  0  0  0  0  0  0  0  0  0  0
    0.7500   -6.4952    0.0000 C   0  0  0  0  0  0  0  0  0  0  0  0
    1.5000   -7.7942    0.0000 C   0  0  0  0  0  0  0  0  0  0  0  0
    0.7500   -9.0933    0.0000 C   0  0  0  0  0  0  0  0  0  0  0  0
    1.5000  -10.3923    0.0000 C   0  0  0  0  0  0  0  0  0  0  0  0
    3.0000  -10.3923    0.0000 C   0  0  0  0  0  0  0  0  0  0  0  0
    3.7500   -9.0933    0.0000 C   0  0  0  0  0  0  0  0  0  0  0  0
    3.0000   -7.7942    0.0000 C   0  0  0  0  0  0  0  0  0  0  0  0
    3.0000   -5.1962    0.0000 C   0  0  0  0  0  0  0  0  0  0  0  0
    3.7500   -3.8971    0.0000 O   0  0  0  0  0  0  0  0  0  0  0  0
    3.5861   -6.5769    0.0000 O   0  0  0  0  0  0  0  0  0  0  0  0
    1.5000    0.0000    0.0000 C   0  0  0  0  0  0  0  0  0  0  0  0
    0.7500    1.2990    0.0000 C   0  0  0  0  0  0  0  0  0  0  0  0
   -0.7500    1.2990    0.0000 C   0  0  0  0  0  0  0  0  0  0  0  0
  1  2  2  0
  2  3  1  0
  2  4  1  0
  4  5  1  0
  5  6  1  0
  6  7  2  0
  7  8  1  0
  8  9  2  0
  9 10  1  0
 10 11  2  0
  4 12  1  0
 12 13  1  0
 13 14  2  0
 13 15  1  0
 15 16  1  0
 16 17  2  0
 17 18  1  0
 18 19  2  0
 19 20  1  0
 20 21  2  0
 15 22  1  0
 22 23  1  0
 23 24  1  0
 24 25  1  0
 25 26  1  0
 26 27  2  0
 26 28  1  0
 28 29  1  0
 29 30  1  0
 30 31  2  0
 31 32  1  0
 32 33  2  0
 33 34  1  0
 34 35  2  0
 28 36  1  0
 36 37  1  0
 37 38  2  0
 37 39  1  0
 39 40  1  0
 40 41  1  0
 41 42  1  0
 42 43  1  0
 43 44  1  0
 44 45  2  0
 44 46  1  0
 46 47  1  0
 47 48  1  0
 48 49  2  0
 49 50  1  0
 50 51  2  0
 51 52  1  0
 52 53  2  0
 46 54  1  0
 54 55  2  0
 54 56  1  0
 42 57  1  0
 57 58  1  0
 58 59  1  0
 11  6  1  0
 24 15  1  0
 35 30  1  0
 58 39  1  0
 21 16  1  0
 59 40  1  0
 53 48  1  0
M  END
>  <Title>  (202) 
idAAOHgen6

$$$$

     RDKit          2D

 36 40  0  0  0  0  0  0  0  0999 V2000
    2.9293   -0.6079    0.0000 O   0  0  0  0  0  0  0  0  0  0  0  0
    3.3928   -2.0345    0.0000 C   0  0  0  0  0  0  0  0  0  0  0  0
    4.8601   -2.3464    0.0000 O   0  0  0  0  0  0  0  0  0  0  0  0
    2.3891   -3.1492    0.0000 C   0  0  0  0  0  0  0  0  0  0  0  0
    2.8527   -4.5758    0.0000 C   0  0  0  0  0  0  0  0  0  0  0  0
    4.3199   -4.8877    0.0000 C   0  0  0  0  0  0  0  0  0  0  0  0
    4.7834   -6.3143    0.0000 C   0  0  0  0  0  0  0  0  0  0  0  0
    6.2506   -6.6262    0.0000 C   0  0  0  0  0  0  0  0  0  0  0  0
    7.2543   -5.5114    0.0000 C   0  0  0  0  0  0  0  0  0  0  0  0
    6.7908   -4.0849    0.0000 C   0  0  0  0  0  0  0  0  0  0  0  0
    5.3236   -3.7730    0.0000 C   0  0  0  0  0  0  0  0  0  0  0  0
    0.9219   -2.8374    0.0000 N   0  0  0  0  0  0  0  0  0  0  0  0
    0.4584   -1.4108    0.0000 C   0  0  0  0  0  0  0  0  0  0  0  0
    1.7020   -0.5721    0.0000 O   0  0  0  0  0  0  0  0  0  0  0  0
   -1.0088   -1.0989    0.0000 C   0  0  0  0  0  0  0  0  0  0  0  0
   -2.0125   -2.2136    0.0000 C   0  0  0  0  0  0  0  0  0  0  0  0
   -1.5490   -3.6402    0.0000 C   0  0  0  0  0  0  0  0  0  0  0  0
   -2.5527   -4.7549    0.0000 C   0  0  0  0  0  0  0  0  0  0  0  0
   -2.0892   -6.1815    0.0000 C   0  0  0  0  0  0  0  0  0  0  0  0
   -0.6219   -6.4934    0.0000 C   0  0  0  0  0  0  0  0  0  0  0  0
    0.3818   -5.3787    0.0000 C   0  0  0  0  0  0  0  0  0  0  0  0
   -0.0818   -3.9521    0.0000 C   0  0  0  0  0  0  0  0  0  0  0  0
   -1.4724    0.3277    0.0000 N   0  0  0  0  0  0  0  0  0  0  0  0
   -0.4687    1.4424    0.0000 C   0  0  0  0  0  0  0  0  0  0  0  0
    0.8795    0.7847    0.0000 O   0  0  0  0  0  0  0  0  0  0  0  0
   -0.9322    2.8690    0.0000 C   0  0  0  0  0  0  0  0  0  0  0  0
    0.1520    3.9056    0.0000 C   0  0  0  0  0  0  0  0  0  0  0  0
   -1.3344    4.1069    0.0000 C   0  0  0  0  0  0  0  0  0  0  0  0
   -2.4186    3.0703    0.0000 C   0  0  0  0  0  0  0  0  0  0  0  0
   -2.2841    1.5763    0.0000 C   0  0  0  0  0  0  0  0  0  0  0  0
   -1.0323    0.7500    0.0000 N   0  0  0  0  0  0  0  0  0  0  0  0
   -1.0323   -0.7500    0.0000 C   0  0  0  0  0  0  0  0  0  0  0  0
    0.3943   -1.2135    0.0000 C   0  0  0  0  0  0  0  0  0  0  0  0
    1.2760    0.0000    0.0000 C   0  0  0  0  0  0  0  0  0  0  0  0
    0.3943    1.2135    0.0000 C   0  0  0  0  0  0  0  0  0  0  0  0
    0.9214    2.6179    0.0000 C   0  0  0  0  0  0  0  0  0  0  0  0
  1  2  2  0
  2  3  1  0
  2  4  1  0
  4  5  1  0
  5  6  1  0
  6  7  2  0
  7  8  1  0
  8  9  2  0
  9 10  1  0
 10 11  2  0
  4 12  1  0
 12 13  1  0
 13 14  2  0
 13 15  1  0
 15 16  1  0
 16 17  1  0
 17 18  2  0
 18 19  1  0
 19 20  2  0
 20 21  1  0
 21 22  2  0
 15 23  1  0
 23 24  1  0
 24 25  2  0
 24 26  1  0
 26 27  1  0
 27 28  1  0
 28 29  1  0
 29 30  1  0
 30 31  1  0
 31 32  1  0
 32 33  1  0
 33 34  1  0
 34 35  1  0
 35 36  1  0
 11  6  1  0
 22 17  1  0
 29 26  1  0
 35 31  1  0
 36 27  1  0
M  END
>  <Title>  (203) 
idAAOIgen6

$$$$

     RDKit          2D

 55 60  0  0  0  0  0  0  0  0999 V2000
   -2.2304   -6.0271    0.0000 C   0  0  0  0  0  0  0  0  0  0  0  0
   -1.9772   -4.5486    0.0000 C   0  0  0  0  0  0  0  0  0  0  0  0
   -2.0893   -3.0528    0.0000 C   0  0  0  0  0  0  0  0  0  0  0  0
   -3.4730   -4.6607    0.0000 C   0  0  0  0  0  0  0  0  0  0  0  0
   -0.4814   -4.4365    0.0000 C   0  0  0  0  0  0  0  0  0  0  0  0
    0.2686   -5.7356    0.0000 C   0  0  0  0  0  0  0  0  0  0  0  0
    1.7519   -5.9591    0.0000 C   0  0  0  0  0  0  0  0  0  0  0  0
    2.8515   -4.9389    0.0000 C   0  0  0  0  0  0  0  0  0  0  0  0
    2.7394   -3.4431    0.0000 C   0  0  0  0  0  0  0  0  0  0  0  0
    1.5000   -2.5981    0.0000 C   0  0  0  0  0  0  0  0  0  0  0  0
    2.8138   -1.8742    0.0000 C   0  0  0  0  0  0  0  0  0  0  0  0
    0.7500   -1.2990    0.0000 C   0  0  0  0  0  0  0  0  0  0  0  0
    1.5000    0.0000    0.0000 C   0  0  0  0  0  0  0  0  0  0  0  0
    0.7500    1.2990    0.0000 C   0  0  0  0  0  0  0  0  0  0  0  0
   -0.7500    1.2990    0.0000 C   0  0  0  0  0  0  0  0  0  0  0  0
   -1.5000    0.0000    0.0000 C   0  0  0  0  0  0  0  0  0  0  0  0
   -0.7500   -1.2990    0.0000 C   0  0  0  0  0  0  0  0  0  0  0  0
   -0.0000   -0.0000    0.0000 C   0  0  0  0  0  0  0  0  0  0  0  0
    0.7500   -1.2990    0.0000 C   0  0  0  0  0  0  0  0  0  0  0  0
   -0.2920   -2.3780    0.0000 O   0  0  0  0  0  0  0  0  0  0  0  0
    2.2500   -1.2990    0.0000 N   0  0  0  0  0  0  0  0  0  0  0  0
    3.0000   -2.5981    0.0000 C   0  0  0  0  0  0  0  0  0  0  0  0
    4.5000   -2.5981    0.0000 C   0  0  0  0  0  0  0  0  0  0  0  0
    5.2500   -3.8971    0.0000 C   0  0  0  0  0  0  0  0  0  0  0  0
    4.5000   -5.1962    0.0000 C   0  0  0  0  0  0  0  0  0  0  0  0
    5.2500   -6.4952    0.0000 C   0  0  0  0  0  0  0  0  0  0  0  0
    6.7500   -6.4952    0.0000 C   0  0  0  0  0  0  0  0  0  0  0  0
    7.5000   -5.1962    0.0000 C   0  0  0  0  0  0  0  0  0  0  0  0
    6.7500   -3.8971    0.0000 C   0  0  0  0  0  0  0  0  0  0  0  0
    2.2500   -3.8971    0.0000 C   0  0  0  0  0  0  0  0  0  0  0  0
    0.7500   -3.8971    0.0000 O   0  0  0  0  0  0  0  0  0  0  0  0
    3.0000   -5.1962    0.0000 N   0  0  0  0  0  0  0  0  0  0  0  0
    2.2500   -6.4952    0.0000 C   0  0  0  0  0  0  0  0  0  0  0  0
    3.0000   -7.7942    0.0000 C   0  0  0  0  0  0  0  0  0  0  0  0
    2.2500   -9.0933    0.0000 C   0  0  0  0  0  0  0  0  0  0  0  0
    0.7500   -9.0933    0.0000 C   0  0  0  0  0  0  0  0  0  0  0  0
   -0.0000  -10.3923    0.0000 C   0  0  0  0  0  0  0  0  0  0  0  0
    0.7500  -11.6913    0.0000 C   0  0  0  0  0  0  0  0  0  0  0  0
    2.2500  -11.6913    0.0000 C   0  0  0  0  0  0  0  0  0  0  0  0
    3.0000  -10.3923    0.0000 C   0  0  0  0  0  0  0  0  0  0  0  0
    0.7500   -6.4952    0.0000 C   0  0  0  0  0  0  0  0  0  0  0  0
    0.3366   -5.0533    0.0000 O   0  0  0  0  0  0  0  0  0  0  0  0
   -0.0000   -7.7942    0.0000 N   0  0  0  0  0  0  0  0  0  0  0  0
   -1.5000   -7.7942    0.0000 C   0  0  0  0  0  0  0  0  0  0  0  0
   -2.2500   -9.0933    0.0000 C   0  0  0  0  0  0  0  0  0  0  0  0
   -3.7500   -9.0933    0.0000 C   0  0  0  0  0  0  0  0  0  0  0  0
   -4.5000   -7.7942    0.0000 C   0  0  0  0  0  0  0  0  0  0  0  0
   -6.0000   -7.7942    0.0000 C   0  0  0  0  0  0  0  0  0  0  0  0
   -6.7500   -9.0933    0.0000 C   0  0  0  0  0  0  0  0  0  0  0  0
   -6.0000  -10.3923    0.0000 C   0  0  0  0  0  0  0  0  0  0  0  0
   -4.5000  -10.3923    0.0000 C   0  0  0  0  0  0  0  0  0  0  0  0
   -2.2500   -6.4952    0.0000 C   0  0  0  0  0  0  0  0  0  0  0  0
   -1.5000   -5.1962    0.0000 O   0  0  0  0  0  0  0  0  0  0  0  0
   -3.7500   -6.4952    0.0000 O   0  0  0  0  0  0  0  0  0  0  0  0
    0.0666   -3.0402    0.0000 C   0  0  0  0  0  0  0  0  0  0  0  0
  1  2  1  0
  2  3  1  0
  2  4  1  0
  2  5  1  0
  5  6  1  0
  6  7  1  0
  7  8  1  0
  8  9  1  0
  9 10  1  0
 10 11  1  0
 10 12  1  0
 12 13  1  0
 13 14  1  0
 14 15  1  0
 15 16  1  0
 16 17  1  0
 16 18  1  0
 18 19  1  0
 19 20  2  0
 19 21  1  0
 21 22  1  0
 22 23  1  0
 23 24  1  0
 24 25  2  0
 25 26  1  0
 26 27  2  0
 27 28  1  0
 28 29  2  0
 22 30  1  0
 30 31  2  0
 30 32  1  0
 32 33  1  0
 33 34  1  0
 34 35  1  0
 35 36  2  0
 36 37  1  0
 37 38  2  0
 38 39  1  0
 39 40  2  0
 33 41  1  0
 41 42  2  0
 41 43  1  0
 43 44  1  0
 44 45  1  0
 45 46  1  0
 46 47  2  0
 47 48  1  0
 48 49  2  0
 49 50  1  0
 50 51  2  0
 44 52  1  0
 52 53  2  0
 52 54  1  0
 10 55  1  0
 55  5  1  0
 17 12  1  0
 29 24  1  0
 40 35  1  0
 51 46  1  0
 18 14  1  0
M  END
>  <Title>  (204) 
idAAOJgen6

$$$$

     RDKit          2D

 14 15  0  0  0  0  0  0  0  0999 V2000
   -2.4465   -2.4465    0.0000 C   0  0  0  0  0  0  0  0  0  0  0  0
   -1.3858   -1.3858    0.0000 C   0  0  0  0  0  0  0  0  0  0  0  0
   -1.7196   -2.8482    0.0000 C   0  0  0  0  0  0  0  0  0  0  0  0
   -0.7844   -4.0210    0.0000 C   0  0  0  0  0  0  0  0  0  0  0  0
    0.7156   -4.0210    0.0000 C   0  0  0  0  0  0  0  0  0  0  0  0
    1.6509   -2.8482    0.0000 C   0  0  0  0  0  0  0  0  0  0  0  0
    1.3858   -1.3858    0.0000 C   0  0  0  0  0  0  0  0  0  0  0  0
    2.4465   -2.4465    0.0000 O   0  0  0  0  0  0  0  0  0  0  0  0
    1.9598    0.0000    0.0000 C   0  0  0  0  0  0  0  0  0  0  0  0
    1.3858    1.3858    0.0000 C   0  0  0  0  0  0  0  0  0  0  0  0
    0.0000    1.9598    0.0000 C   0  0  0  0  0  0  0  0  0  0  0  0
   -1.3858    1.3858    0.0000 O   0  0  0  0  0  0  0  0  0  0  0  0
   -1.9598    0.0000    0.0000 C   0  0  0  0  0  0  0  0  0  0  0  0
   -0.0000   -1.9598    0.0000 C   0  0  0  0  0  0  0  0  0  0  0  0
  1  2  1  0
  2  3  1  0
  3  4  1  0
  4  5  1  0
  5  6  1  0
  6  7  1  0
  7  8  1  0
  7  9  1  0
  9 10  1  0
 10 11  1  0
 11 12  1  0
 12 13  1  0
  7 14  1  0
 13  2  1  0
 14  2  1  0
M  END
>  <Title>  (205) 
idAAOKgen6

$$$$

     RDKit          2D

 68 74  0  0  0  0  0  0  0  0999 V2000
    5.2500   -1.2990    0.0000 O   0  0  0  0  0  0  0  0  0  0  0  0
    6.7500   -1.2990    0.0000 C   0  0  0  0  0  0  0  0  0  0  0  0
    7.5000   -0.0000    0.0000 O   0  0  0  0  0  0  0  0  0  0  0  0
    7.5000   -2.5981    0.0000 C   0  0  0  0  0  0  0  0  0  0  0  0
    9.0000   -2.5981    0.0000 C   0  0  0  0  0  0  0  0  0  0  0  0
    9.7500   -1.2990    0.0000 C   0  0  0  0  0  0  0  0  0  0  0  0
   11.2500   -1.2990    0.0000 C   0  0  0  0  0  0  0  0  0  0  0  0
   12.0000   -0.0000    0.0000 C   0  0  0  0  0  0  0  0  0  0  0  0
   11.2500    1.2990    0.0000 C   0  0  0  0  0  0  0  0  0  0  0  0
    9.7500    1.2990    0.0000 C   0  0  0  0  0  0  0  0  0  0  0  0
    9.0000   -0.0000    0.0000 C   0  0  0  0  0  0  0  0  0  0  0  0
    6.7500   -3.8971    0.0000 N   0  0  0  0  0  0  0  0  0  0  0  0
    5.2500   -3.8971    0.0000 C   0  0  0  0  0  0  0  0  0  0  0  0
    4.5000   -2.5981    0.0000 O   0  0  0  0  0  0  0  0  0  0  0  0
    4.5000   -5.1962    0.0000 C   0  0  0  0  0  0  0  0  0  0  0  0
    5.2500   -6.4952    0.0000 C   0  0  0  0  0  0  0  0  0  0  0  0
    6.7500   -6.4952    0.0000 C   0  0  0  0  0  0  0  0  0  0  0  0
    7.5000   -7.7942    0.0000 C   0  0  0  0  0  0  0  0  0  0  0  0
    9.0000   -7.7942    0.0000 C   0  0  0  0  0  0  0  0  0  0  0  0
    9.7500   -6.4952    0.0000 C   0  0  0  0  0  0  0  0  0  0  0  0
    9.0000   -5.1962    0.0000 C   0  0  0  0  0  0  0  0  0  0  0  0
    7.5000   -5.1962    0.0000 C   0  0  0  0  0  0  0  0  0  0  0  0
    3.0000   -5.1962    0.0000 N   0  0  0  0  0  0  0  0  0  0  0  0
    2.2500   -3.8971    0.0000 C   0  0  0  0  0  0  0  0  0  0  0  0
    3.0000   -2.5981    0.0000 O   0  0  0  0  0  0  0  0  0  0  0  0
    0.7500   -3.8971    0.0000 C   0  0  0  0  0  0  0  0  0  0  0  0
   -0.0000   -5.1962    0.0000 C   0  0  0  0  0  0  0  0  0  0  0  0
    0.7500   -6.4952    0.0000 C   0  0  0  0  0  0  0  0  0  0  0  0
   -0.0000   -7.7942    0.0000 C   0  0  0  0  0  0  0  0  0  0  0  0
    0.7500   -9.0933    0.0000 C   0  0  0  0  0  0  0  0  0  0  0  0
    2.2500   -9.0933    0.0000 C   0  0  0  0  0  0  0  0  0  0  0  0
    3.0000   -7.7942    0.0000 C   0  0  0  0  0  0  0  0  0  0  0  0
    2.2500   -6.4952    0.0000 C   0  0  0  0  0  0  0  0  0  0  0  0
   -0.0000   -2.5981    0.0000 N   0  0  0  0  0  0  0  0  0  0  0  0
    0.7500   -1.2990    0.0000 C   0  0  0  0  0  0  0  0  0  0  0  0
    2.2500   -1.2990    0.0000 O   0  0  0  0  0  0  0  0  0  0  0  0
   -0.0000    0.0000    0.0000 C   0  0  0  0  0  0  0  0  0  0  0  0
   -1.5000    0.0000    0.0000 C   0  0  0  0  0  0  0  0  0  0  0  0
   -0.7500   -1.2990    0.0000 C   0  0  0  0  0  0  0  0  0  0  0  0
    0.7500   -1.2990    0.0000 C   0  0  0  0  0  0  0  0  0  0  0  0
    1.5000   -2.5981    0.0000 N   0  0  0  0  0  0  0  0  0  0  0  0
    0.7500   -3.8971    0.0000 C   0  0  0  0  0  0  0  0  0  0  0  0
   -0.7500   -3.8971    0.0000 O   0  0  0  0  0  0  0  0  0  0  0  0
    1.5000   -5.1962    0.0000 C   0  0  0  0  0  0  0  0  0  0  0  0
    0.7500   -6.4952    0.0000 C   0  0  0  0  0  0  0  0  0  0  0  0
    1.5000   -7.7942    0.0000 C   0  0  0  0  0  0  0  0  0  0  0  0
    0.7500   -9.0933    0.0000 C   0  0  0  0  0  0  0  0  0  0  0  0
    1.5000  -10.3923    0.0000 C   0  0  0  0  0  0  0  0  0  0  0  0
    3.0000  -10.3923    0.0000 C   0  0  0  0  0  0  0  0  0  0  0  0
    3.7500   -9.0933    0.0000 C   0  0  0  0  0  0  0  0  0  0  0  0
    3.0000   -7.7942    0.0000 C   0  0  0  0  0  0  0  0  0  0  0  0
    3.0000   -5.1962    0.0000 C   0  0  0  0  0  0  0  0  0  0  0  0
    3.7500   -3.8971    0.0000 O   0  0  0  0  0  0  0  0  0  0  0  0
    3.7500   -6.4952    0.0000 N   0  0  0  0  0  0  0  0  0  0  0  0
    5.2500   -6.4952    0.0000 C   0  0  0  0  0  0  0  0  0  0  0  0
    6.0000   -7.7942    0.0000 C   0  0  0  0  0  0  0  0  0  0  0  0
    7.5000   -7.7942    0.0000 C   0  0  0  0  0  0  0  0  0  0  0  0
    8.2500   -9.0933    0.0000 C   0  0  0  0  0  0  0  0  0  0  0  0
    9.7500   -9.0933    0.0000 C   0  0  0  0  0  0  0  0  0  0  0  0
   10.5000   -7.7942    0.0000 C   0  0  0  0  0  0  0  0  0  0  0  0
    9.7500   -6.4952    0.0000 C   0  0  0  0  0  0  0  0  0  0  0  0
    8.2500   -6.4952    0.0000 C   0  0  0  0  0  0  0  0  0  0  0  0
    6.0000   -5.1962    0.0000 C   0  0  0  0  0  0  0  0  0  0  0  0
    5.5866   -3.7542    0.0000 O   0  0  0  0  0  0  0  0  0  0  0  0
    7.4554   -4.8332    0.0000 O   0  0  0  0  0  0  0  0  0  0  0  0
    1.5000    0.0000    0.0000 C   0  0  0  0  0  0  0  0  0  0  0  0
    0.7500    1.2990    0.0000 C   0  0  0  0  0  0  0  0  0  0  0  0
   -0.7500    1.2990    0.0000 C   0  0  0  0  0  0  0  0  0  0  0  0
  1  2  2  0
  2  3  1  0
  2  4  1  0
  4  5  1  0
  5  6  1  0
  6  7  2  0
  7  8  1  0
  8  9  2  0
  9 10  1  0
 10 11  2  0
  4 12  1  0
 12 13  1  0
 13 14  2  0
 13 15  1  0
 15 16  1  0
 16 17  1  0
 17 18  2  0
 18 19  1  0
 19 20  2  0
 20 21  1  0
 21 22  2  0
 15 23  1  0
 23 24  1  0
 24 25  2  0
 24 26  1  0
 26 27  1  0
 27 28  1  0
 28 29  2  0
 29 30  1  0
 30 31  2  0
 31 32  1  0
 32 33  2  0
 26 34  1  0
 34 35  1  0
 35 36  2  0
 35 37  1  0
 37 38  1  0
 38 39  1  0
 39 40  1  0
 40 41  1  0
 41 42  1  0
 42 43  2  0
 42 44  1  0
 44 45  1  0
 45 46  1  0
 46 47  2  0
 47 48  1  0
 48 49  2  0
 49 50  1  0
 50 51  2  0
 44 52  1  0
 52 53  2  0
 52 54  1  0
 54 55  1  0
 55 56  1  0
 56 57  1  0
 57 58  2  0
 58 59  1  0
 59 60  2  0
 60 61  1  0
 61 62  2  0
 55 63  1  0
 63 64  2  0
 63 65  1  0
 40 66  1  0
 66 67  1  0
 67 68  1  0
 11  6  1  0
 22 17  1  0
 33 28  1  0
 67 37  1  0
 68 38  1  0
 51 46  1  0
 62 57  1  0
M  END
>  <Title>  (206) 
idAAOLgen6

$$$$

     RDKit          2D

 29 33  0  0  0  0  0  0  0  0999 V2000
    5.1102   -5.2419    0.0000 C   0  0  0  0  0  0  0  0  0  0  0  0
    3.9955   -4.2382    0.0000 C   0  0  0  0  0  0  0  0  0  0  0  0
    2.8808   -3.2345    0.0000 C   0  0  0  0  0  0  0  0  0  0  0  0
    4.9992   -3.1235    0.0000 C   0  0  0  0  0  0  0  0  0  0  0  0
    2.9918   -5.3529    0.0000 C   0  0  0  0  0  0  0  0  0  0  0  0
    3.3037   -6.8202    0.0000 C   0  0  0  0  0  0  0  0  0  0  0  0
    2.0046   -7.5702    0.0000 C   0  0  0  0  0  0  0  0  0  0  0  0
    3.1193   -8.5739    0.0000 C   0  0  0  0  0  0  0  0  0  0  0  0
    4.1230   -7.4591    0.0000 C   0  0  0  0  0  0  0  0  0  0  0  0
    2.1156   -9.6886    0.0000 C   0  0  0  0  0  0  0  0  0  0  0  0
    4.2340   -9.5776    0.0000 N   0  0  0  0  0  0  0  0  0  0  0  0
    1.3945   -8.9405    0.0000 C   0  0  0  0  0  0  0  0  0  0  0  0
   -0.0973   -8.7837    0.0000 C   0  0  0  0  0  0  0  0  0  0  0  0
   -0.4091   -7.3165    0.0000 C   0  0  0  0  0  0  0  0  0  0  0  0
    0.8899   -6.5665    0.0000 C   0  0  0  0  0  0  0  0  0  0  0  0
   -0.2248   -5.5628    0.0000 C   0  0  0  0  0  0  0  0  0  0  0  0
    1.5000   -5.1962    0.0000 C   0  0  0  0  0  0  0  0  0  0  0  0
    0.7500   -3.8971    0.0000 C   0  0  0  0  0  0  0  0  0  0  0  0
    1.5000   -2.5981    0.0000 C   0  0  0  0  0  0  0  0  0  0  0  0
    0.7500   -1.2990    0.0000 C   0  0  0  0  0  0  0  0  0  0  0  0
    1.5000    0.0000    0.0000 C   0  0  0  0  0  0  0  0  0  0  0  0
    0.7500    1.2990    0.0000 C   0  0  0  0  0  0  0  0  0  0  0  0
   -0.7500    1.2990    0.0000 C   0  0  0  0  0  0  0  0  0  0  0  0
   -1.5000    0.0000    0.0000 C   0  0  0  0  0  0  0  0  0  0  0  0
    1.7010   -0.7500    0.0000 C   0  0  0  0  0  0  0  0  0  0  0  0
    3.0000   -0.0000    0.0000 C   0  0  0  0  0  0  0  0  0  0  0  0
    2.2500    1.2990    0.0000 C   0  0  0  0  0  0  0  0  0  0  0  0
    2.2500   -1.2990    0.0000 C   0  0  0  0  0  0  0  0  0  0  0  0
   -0.7500   -1.2990    0.0000 C   0  0  0  0  0  0  0  0  0  0  0  0
  1  2  1  0
  2  3  1  0
  2  4  1  0
  2  5  1  0
  5  6  1  0
  6  7  1  0
  7  8  1  0
  8  9  1  0
  8 10  1  0
  8 11  1  0
  7 12  1  0
 12 13  1  0
 13 14  1  0
 14 15  1  0
 15 16  1  0
 15 17  1  0
 17 18  1  0
 18 19  1  0
 19 20  1  0
 20 21  1  0
 21 22  1  0
 22 23  1  0
 23 24  1  0
 24 25  1  0
 25 26  1  0
 26 27  1  0
 26 28  1  0
 24 29  1  0
 17  5  1  0
 28 20  1  0
 15  7  1  0
 29 20  1  0
 27 22  1  0
M  END
>  <Title>  (207) 
idAAOMgen6

$$$$

     RDKit          2D

 21 23  0  0  0  0  0  0  0  0999 V2000
    2.7580    0.8169    0.0000 C   0  0  0  0  0  0  0  0  0  0  0  0
    1.5000    0.0000    0.0000 C   0  0  0  0  0  0  0  0  0  0  0  0
    2.6491   -0.9642    0.0000 C   0  0  0  0  0  0  0  0  0  0  0  0
    0.7500   -1.2990    0.0000 C   0  0  0  0  0  0  0  0  0  0  0  0
   -0.7500   -1.2990    0.0000 C   0  0  0  0  0  0  0  0  0  0  0  0
   -1.5000    0.0000    0.0000 C   0  0  0  0  0  0  0  0  0  0  0  0
   -0.7500    1.2990    0.0000 C   0  0  0  0  0  0  0  0  0  0  0  0
   -2.2500    1.2990    0.0000 C   0  0  0  0  0  0  0  0  0  0  0  0
   -1.5000    2.5981    0.0000 C   0  0  0  0  0  0  0  0  0  0  0  0
   -3.0000    2.5981    0.0000 C   0  0  0  0  0  0  0  0  0  0  0  0
   -3.7500    3.8971    0.0000 C   0  0  0  0  0  0  0  0  0  0  0  0
   -5.2500    3.8971    0.0000 C   0  0  0  0  0  0  0  0  0  0  0  0
   -6.1317    2.6836    0.0000 C   0  0  0  0  0  0  0  0  0  0  0  0
   -7.5583    3.1471    0.0000 C   0  0  0  0  0  0  0  0  0  0  0  0
   -7.5583    4.6471    0.0000 C   0  0  0  0  0  0  0  0  0  0  0  0
   -6.1317    5.1106    0.0000 C   0  0  0  0  0  0  0  0  0  0  0  0
   -0.7500    3.8971    0.0000 C   0  0  0  0  0  0  0  0  0  0  0  0
    0.7500    3.8971    0.0000 C   0  0  0  0  0  0  0  0  0  0  0  0
    1.5000    2.5981    0.0000 C   0  0  0  0  0  0  0  0  0  0  0  0
    0.7500    1.2990    0.0000 C   0  0  0  0  0  0  0  0  0  0  0  0
    2.2388    1.4819    0.0000 C   0  0  0  0  0  0  0  0  0  0  0  0
  1  2  1  0
  2  3  1  0
  2  4  1  0
  4  5  1  0
  5  6  1  0
  6  7  1  0
  7  8  1  0
  7  9  1  0
  9 10  1  0
 10 11  1  0
 11 12  1  0
 12 13  1  0
 13 14  1  0
 14 15  1  0
 15 16  1  0
  9 17  1  0
 17 18  1  0
 18 19  1  0
 19 20  1  0
 20 21  1  0
 20  2  1  0
 20  7  1  0
 16 12  1  0
M  END
>  <Title>  (208) 
idAAONgen6

$$$$

     RDKit          2D

 26 27  0  0  0  0  0  0  0  0999 V2000
    4.0916    1.3399    0.0000 C   0  0  0  0  0  0  0  0  0  0  0  0
    3.9271    0.0000    0.0000 C   0  0  0  0  0  0  0  0  0  0  0  0
    3.9271   -1.5000    0.0000 C   0  0  0  0  0  0  0  0  0  0  0  0
    5.4271    0.0000    0.0000 C   0  0  0  0  0  0  0  0  0  0  0  0
    2.4271    0.0000    0.0000 C   0  0  0  0  0  0  0  0  0  0  0  0
    1.9635   -1.4266    0.0000 C   0  0  0  0  0  0  0  0  0  0  0  0
    0.7500   -2.3083    0.0000 C   0  0  0  0  0  0  0  0  0  0  0  0
   -0.7500   -2.3083    0.0000 C   0  0  0  0  0  0  0  0  0  0  0  0
   -1.2135   -3.7348    0.0000 C   0  0  0  0  0  0  0  0  0  0  0  0
   -0.1293   -4.7714    0.0000 C   0  0  0  0  0  0  0  0  0  0  0  0
   -0.2638   -6.2654    0.0000 C   0  0  0  0  0  0  0  0  0  0  0  0
   -1.5157   -7.0917    0.0000 C   0  0  0  0  0  0  0  0  0  0  0  0
   -2.9422   -6.6282    0.0000 C   0  0  0  0  0  0  0  0  0  0  0  0
   -3.4693   -5.2239    0.0000 C   0  0  0  0  0  0  0  0  0  0  0  0
   -2.7000   -3.9362    0.0000 C   0  0  0  0  0  0  0  0  0  0  0  0
   -4.1265   -3.4727    0.0000 C   0  0  0  0  0  0  0  0  0  0  0  0
   -2.5655   -2.4422    0.0000 C   0  0  0  0  0  0  0  0  0  0  0  0
   -1.9635   -1.4266    0.0000 C   0  0  0  0  0  0  0  0  0  0  0  0
   -2.4271    0.0000    0.0000 C   0  0  0  0  0  0  0  0  0  0  0  0
   -3.9271    0.0000    0.0000 O   0  0  0  0  0  0  0  0  0  0  0  0
   -1.9635    1.4266    0.0000 C   0  0  0  0  0  0  0  0  0  0  0  0
   -0.7500    2.3083    0.0000 C   0  0  0  0  0  0  0  0  0  0  0  0
    0.7500    2.3083    0.0000 C   0  0  0  0  0  0  0  0  0  0  0  0
    1.9635    1.4266    0.0000 C   0  0  0  0  0  0  0  0  0  0  0  0
    2.4271    2.8532    0.0000 C   0  0  0  0  0  0  0  0  0  0  0  0
    3.3035    1.5911    0.0000 C   0  0  0  0  0  0  0  0  0  0  0  0
  1  2  1  0
  2  3  1  0
  2  4  1  0
  2  5  1  0
  5  6  1  0
  6  7  1  0
  7  8  1  0
  8  9  1  0
  9 10  1  0
 10 11  1  0
 11 12  1  0
 12 13  1  0
 13 14  1  0
 14 15  1  0
 15 16  1  0
 15 17  1  0
  8 18  1  0
 18 19  1  0
 19 20  1  0
 19 21  1  0
 21 22  1  0
 22 23  1  0
 23 24  1  0
 24 25  1  0
 24 26  1  0
 24  5  1  0
 15  9  1  0
M  END
>  <Title>  (209) 
idAAOOgen6

$$$$

     RDKit          2D

 59 61  0  0  0  0  0  0  0  0999 V2000
    3.3665    0.9036    0.0000 C   0  0  0  0  0  0  0  0  0  0  0  0
    3.9252    1.8436    0.0000 C   0  0  0  0  0  0  0  0  0  0  0  0
    4.9637    2.4743    0.0000 C   0  0  0  0  0  0  0  0  0  0  0  0
    4.9909    0.7880    0.0000 C   0  0  0  0  0  0  0  0  0  0  0  0
    2.8595    2.8992    0.0000 C   0  0  0  0  0  0  0  0  0  0  0  0
    1.7074    1.9387    0.0000 C   0  0  0  0  0  0  0  0  0  0  0  0
    0.3943    1.2135    0.0000 C   0  0  0  0  0  0  0  0  0  0  0  0
    1.8585    0.8877    0.0000 C   0  0  0  0  0  0  0  0  0  0  0  0
    1.8966   -0.6118    0.0000 C   0  0  0  0  0  0  0  0  0  0  0  0
    2.3604    2.3013    0.0000 C   0  0  0  0  0  0  0  0  0  0  0  0
    2.8367    0.3990    0.0000 C   0  0  0  0  0  0  0  0  0  0  0  0
    1.2760    0.0000    0.0000 C   0  0  0  0  0  0  0  0  0  0  0  0
    0.3943   -1.2135    0.0000 C   0  0  0  0  0  0  0  0  0  0  0  0
   -1.0323   -0.7500    0.0000 C   0  0  0  0  0  0  0  0  0  0  0  0
   -1.0323    0.7500    0.0000 C   0  0  0  0  0  0  0  0  0  0  0  0
   -2.5208    0.5648    0.0000 C   0  0  0  0  0  0  0  0  0  0  0  0
   -4.0175    0.6647    0.0000 C   0  0  0  0  0  0  0  0  0  0  0  0
   -5.4682    1.0460    0.0000 C   0  0  0  0  0  0  0  0  0  0  0  0
   -6.8205    1.6950    0.0000 C   0  0  0  0  0  0  0  0  0  0  0  0
   -8.0256    2.5882    0.0000 C   0  0  0  0  0  0  0  0  0  0  0  0
   -9.0399    3.6933    0.0000 C   0  0  0  0  0  0  0  0  0  0  0  0
   -9.8267    4.9704    0.0000 C   0  0  0  0  0  0  0  0  0  0  0  0
  -10.3576    6.3733    0.0000 C   0  0  0  0  0  0  0  0  0  0  0  0
  -10.6133    7.8514    0.0000 C   0  0  0  0  0  0  0  0  0  0  0  0
  -10.5848    9.3511    0.0000 C   0  0  0  0  0  0  0  0  0  0  0  0
  -10.2729   10.8183    0.0000 C   0  0  0  0  0  0  0  0  0  0  0  0
   -9.6890   12.2000    0.0000 C   0  0  0  0  0  0  0  0  0  0  0  0
   -8.8542   13.4462    0.0000 C   0  0  0  0  0  0  0  0  0  0  0  0
   -7.7986   14.5119    0.0000 C   0  0  0  0  0  0  0  0  0  0  0  0
   -6.5604   15.3586    0.0000 C   0  0  0  0  0  0  0  0  0  0  0  0
   -5.1843   15.9556    0.0000 C   0  0  0  0  0  0  0  0  0  0  0  0
   -3.7201   16.2814    0.0000 C   0  0  0  0  0  0  0  0  0  0  0  0
   -2.2207   16.3243    0.0000 C   0  0  0  0  0  0  0  0  0  0  0  0
   -0.7403   16.0826    0.0000 C   0  0  0  0  0  0  0  0  0  0  0  0
    0.6676   15.5651    0.0000 C   0  0  0  0  0  0  0  0  0  0  0  0
    1.9521   14.7905    0.0000 C   0  0  0  0  0  0  0  0  0  0  0  0
    3.0668   13.7868    0.0000 C   0  0  0  0  0  0  0  0  0  0  0  0
    3.9714   12.5903    0.0000 C   0  0  0  0  0  0  0  0  0  0  0  0
    4.6333   11.2442    0.0000 C   0  0  0  0  0  0  0  0  0  0  0  0
    5.0284    9.7971    0.0000 C   0  0  0  0  0  0  0  0  0  0  0  0
    5.1425    8.3015    0.0000 C   0  0  0  0  0  0  0  0  0  0  0  0
    4.9715    6.8113    0.0000 C   0  0  0  0  0  0  0  0  0  0  0  0
    4.5216    5.3803    0.0000 C   0  0  0  0  0  0  0  0  0  0  0  0
    3.8090    4.0604    0.0000 C   0  0  0  0  0  0  0  0  0  0  0  0
    5.0552    3.2256    0.0000 C   0  0  0  0  0  0  0  0  0  0  0  0
    4.9553    1.7289    0.0000 C   0  0  0  0  0  0  0  0  0  0  0  0
    3.5184    2.1593    0.0000 C   0  0  0  0  0  0  0  0  0  0  0  0
    3.5884    3.6577    0.0000 C   0  0  0  0  0  0  0  0  0  0  0  0
    3.0880    0.7224    0.0000 C   0  0  0  0  0  0  0  0  0  0  0  0
    2.1447    2.7617    0.0000 C   0  0  0  0  0  0  0  0  0  0  0  0
    4.2160    0.4238    0.0000 C   0  0  0  0  0  0  0  0  0  0  0  0
    4.7754   -0.9680    0.0000 C   0  0  0  0  0  0  0  0  0  0  0  0
    3.7641   -2.0759    0.0000 O   0  0  0  0  0  0  0  0  0  0  0  0
    6.2123   -1.3984    0.0000 C   0  0  0  0  0  0  0  0  0  0  0  0
    7.4447   -0.5434    0.0000 C   0  0  0  0  0  0  0  0  0  0  0  0
    7.5446    0.9533    0.0000 C   0  0  0  0  0  0  0  0  0  0  0  0
    6.4367    1.9645    0.0000 C   0  0  0  0  0  0  0  0  0  0  0  0
    7.6691    2.8196    0.0000 C   0  0  0  0  0  0  0  0  0  0  0  0
    5.8773    3.3563    0.0000 C   0  0  0  0  0  0  0  0  0  0  0  0
  1  2  1  0
  2  3  1  0
  2  4  1  0
  2  5  1  0
  5  6  1  0
  6  7  1  0
  7  8  1  0
  8  9  1  0
  8 10  1  0
  8 11  1  0
  7 12  1  0
 12 13  1  0
 13 14  1  0
 14 15  1  0
 15 16  1  0
 16 17  1  0
 17 18  1  0
 18 19  1  0
 19 20  1  0
 20 21  1  0
 21 22  1  0
 22 23  1  0
 23 24  1  0
 24 25  1  0
 25 26  1  0
 26 27  1  0
 27 28  1  0
 28 29  1  0
 29 30  1  0
 30 31  1  0
 31 32  1  0
 32 33  1  0
 33 34  1  0
 34 35  1  0
 35 36  1  0
 36 37  1  0
 37 38  1  0
 38 39  1  0
 39 40  1  0
 40 41  1  0
 41 42  1  0
 42 43  1  0
 43 44  1  0
 44 45  1  0
 45 46  1  0
 46 47  1  0
 47 48  1  0
 47 49  1  0
 47 50  1  0
 46 51  1  0
 51 52  1  0
 52 53  1  0
 52 54  1  0
 54 55  1  0
 55 56  1  0
 56 57  1  0
 57 58  1  0
 57 59  1  0
 44  5  1  0
 57 46  1  0
 15  7  1  0
M  END
>  <Title>  (210) 
idAAOPgen6

$$$$

     RDKit          2D

 65 71  0  0  0  0  0  0  0  0999 V2000
   -1.4033    6.9044    0.0000 C   0  0  0  0  0  0  0  0  0  0  0  0
   -2.7242    6.1936    0.0000 C   0  0  0  0  0  0  0  0  0  0  0  0
   -3.8338    5.1843    0.0000 C   0  0  0  0  0  0  0  0  0  0  0  0
   -3.0942    7.6473    0.0000 C   0  0  0  0  0  0  0  0  0  0  0  0
   -2.0134    4.8727    0.0000 N   0  0  0  0  0  0  0  0  0  0  0  0
   -2.8019    3.5967    0.0000 C   0  0  0  0  0  0  0  0  0  0  0  0
   -4.2675    3.2775    0.0000 O   0  0  0  0  0  0  0  0  0  0  0  0
   -2.0911    2.2758    0.0000 C   0  0  0  0  0  0  0  0  0  0  0  0
   -0.5926    2.3431    0.0000 C   0  0  0  0  0  0  0  0  0  0  0  0
    0.3943    1.2135    0.0000 C   0  0  0  0  0  0  0  0  0  0  0  0
    1.2760    0.0000    0.0000 C   0  0  0  0  0  0  0  0  0  0  0  0
    0.3943   -1.2135    0.0000 C   0  0  0  0  0  0  0  0  0  0  0  0
   -1.0323   -0.7500    0.0000 C   0  0  0  0  0  0  0  0  0  0  0  0
   -2.5737   -0.3836    0.0000 C   0  0  0  0  0  0  0  0  0  0  0  0
   -2.9728    1.0623    0.0000 C   0  0  0  0  0  0  0  0  0  0  0  0
   -4.4487    1.3301    0.0000 C   0  0  0  0  0  0  0  0  0  0  0  0
   -5.2813    2.5778    0.0000 O   0  0  0  0  0  0  0  0  0  0  0  0
   -5.4186    0.1859    0.0000 N   0  0  0  0  0  0  0  0  0  0  0  0
   -6.8945    0.4537    0.0000 C   0  0  0  0  0  0  0  0  0  0  0  0
   -7.8644   -0.6905    0.0000 C   0  0  0  0  0  0  0  0  0  0  0  0
   -9.3403   -0.4227    0.0000 C   0  0  0  0  0  0  0  0  0  0  0  0
   -9.8463    0.9894    0.0000 C   0  0  0  0  0  0  0  0  0  0  0  0
  -11.3221    1.2572    0.0000 C   0  0  0  0  0  0  0  0  0  0  0  0
  -12.2920    0.1130    0.0000 C   0  0  0  0  0  0  0  0  0  0  0  0
  -11.7861   -1.2991    0.0000 C   0  0  0  0  0  0  0  0  0  0  0  0
  -10.3102   -1.5669    0.0000 C   0  0  0  0  0  0  0  0  0  0  0  0
   -7.4005    1.8658    0.0000 C   0  0  0  0  0  0  0  0  0  0  0  0
   -6.1825    2.7414    0.0000 O   0  0  0  0  0  0  0  0  0  0  0  0
   -8.8764    2.1337    0.0000 O   0  0  0  0  0  0  0  0  0  0  0  0
   -1.0323    0.7500    0.0000 C   0  0  0  0  0  0  0  0  0  0  0  0
   -2.2458    1.6317    0.0000 C   0  0  0  0  0  0  0  0  0  0  0  0
   -2.0890    3.1235    0.0000 C   0  0  0  0  0  0  0  0  0  0  0  0
   -0.7187    3.7336    0.0000 O   0  0  0  0  0  0  0  0  0  0  0  0
   -3.3025    4.0051    0.0000 C   0  0  0  0  0  0  0  0  0  0  0  0
   -3.1458    5.4969    0.0000 C   0  0  0  0  0  0  0  0  0  0  0  0
   -4.3593    6.3786    0.0000 C   0  0  0  0  0  0  0  0  0  0  0  0
   -4.2025    7.8704    0.0000 C   0  0  0  0  0  0  0  0  0  0  0  0
   -5.4160    8.7521    0.0000 C   0  0  0  0  0  0  0  0  0  0  0  0
   -6.7863    8.1420    0.0000 C   0  0  0  0  0  0  0  0  0  0  0  0
   -6.9431    6.6502    0.0000 C   0  0  0  0  0  0  0  0  0  0  0  0
   -5.7296    5.7685    0.0000 C   0  0  0  0  0  0  0  0  0  0  0  0
   -4.6729    3.3950    0.0000 N   0  0  0  0  0  0  0  0  0  0  0  0
   -5.8864    4.2767    0.0000 C   0  0  0  0  0  0  0  0  0  0  0  0
   -6.0952    5.7621    0.0000 O   0  0  0  0  0  0  0  0  0  0  0  0
   -7.2567    3.6666    0.0000 C   0  0  0  0  0  0  0  0  0  0  0  0
   -7.4135    2.1748    0.0000 C   0  0  0  0  0  0  0  0  0  0  0  0
   -6.0432    2.7849    0.0000 C   0  0  0  0  0  0  0  0  0  0  0  0
   -5.8864    4.2767    0.0000 C   0  0  0  0  0  0  0  0  0  0  0  0
   -4.5161    4.8868    0.0000 N   0  0  0  0  0  0  0  0  0  0  0  0
   -4.3593    6.3786    0.0000 C   0  0  0  0  0  0  0  0  0  0  0  0
   -5.5728    7.2603    0.0000 O   0  0  0  0  0  0  0  0  0  0  0  0
   -2.9890    6.9887    0.0000 C   0  0  0  0  0  0  0  0  0  0  0  0
   -2.8322    8.4805    0.0000 C   0  0  0  0  0  0  0  0  0  0  0  0
   -1.4618    9.0906    0.0000 C   0  0  0  0  0  0  0  0  0  0  0  0
   -0.2483    8.2089    0.0000 C   0  0  0  0  0  0  0  0  0  0  0  0
    1.1220    8.8190    0.0000 C   0  0  0  0  0  0  0  0  0  0  0  0
    1.2788   10.3108    0.0000 C   0  0  0  0  0  0  0  0  0  0  0  0
    0.0653   11.1925    0.0000 C   0  0  0  0  0  0  0  0  0  0  0  0
   -1.3051   10.5824    0.0000 C   0  0  0  0  0  0  0  0  0  0  0  0
   -1.7754    6.1070    0.0000 C   0  0  0  0  0  0  0  0  0  0  0  0
   -1.5666    4.6216    0.0000 O   0  0  0  0  0  0  0  0  0  0  0  0
   -0.4051    6.7171    0.0000 O   0  0  0  0  0  0  0  0  0  0  0  0
   -7.0999    5.1584    0.0000 C   0  0  0  0  0  0  0  0  0  0  0  0
   -8.4702    4.5483    0.0000 C   0  0  0  0  0  0  0  0  0  0  0  0
   -8.6270    3.0565    0.0000 C   0  0  0  0  0  0  0  0  0  0  0  0
  1  2  1  0
  2  3  1  0
  2  4  1  0
  2  5  1  0
  5  6  1  0
  6  7  2  0
  6  8  1  0
  8  9  1  0
  9 10  1  0
 10 11  1  0
 11 12  1  0
 12 13  1  0
 13 14  1  0
 14 15  1  0
 15 16  1  0
 16 17  2  0
 16 18  1  0
 18 19  1  0
 19 20  1  0
 20 21  1  0
 21 22  2  0
 22 23  1  0
 23 24  2  0
 24 25  1  0
 25 26  2  0
 19 27  1  0
 27 28  2  0
 27 29  1  0
 13 30  1  0
 30 31  1  0
 31 32  1  0
 32 33  1  0
 32 34  1  0
 34 35  1  0
 35 36  1  0
 36 37  2  0
 37 38  1  0
 38 39  2  0
 39 40  1  0
 40 41  2  0
 34 42  1  0
 42 43  1  0
 43 44  2  0
 43 45  1  0
 45 46  1  0
 46 47  1  0
 47 48  1  0
 48 49  1  0
 49 50  1  0
 50 51  2  0
 50 52  1  0
 52 53  1  0
 53 54  1  0
 54 55  2  0
 55 56  1  0
 56 57  2  0
 57 58  1  0
 58 59  2  0
 52 60  1  0
 60 61  2  0
 60 62  1  0
 48 63  1  0
 63 64  1  0
 64 65  1  0
 15  8  1  0
 26 21  1  0
 41 36  1  0
 64 45  1  0
 30 10  1  0
 65 46  1  0
 59 54  1  0
M  END
>  <Title>  (211) 
idAAOQgen6

$$$$

     RDKit          2D

 36 41  0  0  0  0  0  0  0  0999 V2000
   -1.8760    4.4687    0.0000 O   0  0  0  0  0  0  0  0  0  0  0  0
   -3.2463    3.8586    0.0000 C   0  0  0  0  0  0  0  0  0  0  0  0
   -4.4598    4.7402    0.0000 N   0  0  0  0  0  0  0  0  0  0  0  0
   -4.3030    6.2320    0.0000 C   0  0  0  0  0  0  0  0  0  0  0  0
   -5.5165    7.1137    0.0000 C   0  0  0  0  0  0  0  0  0  0  0  0
   -6.5955    6.0717    0.0000 C   0  0  0  0  0  0  0  0  0  0  0  0
   -8.0374    6.4852    0.0000 C   0  0  0  0  0  0  0  0  0  0  0  0
   -9.1164    5.4432    0.0000 C   0  0  0  0  0  0  0  0  0  0  0  0
   -8.7536    3.9877    0.0000 C   0  0  0  0  0  0  0  0  0  0  0  0
   -7.3117    3.5743    0.0000 C   0  0  0  0  0  0  0  0  0  0  0  0
   -6.2327    4.6163    0.0000 N   0  0  0  0  0  0  0  0  0  0  0  0
   -6.3553    8.3573    0.0000 C   0  0  0  0  0  0  0  0  0  0  0  0
   -4.8590    8.4619    0.0000 C   0  0  0  0  0  0  0  0  0  0  0  0
   -3.4031    2.3668    0.0000 N   0  0  0  0  0  0  0  0  0  0  0  0
   -2.1895    1.4851    0.0000 C   0  0  0  0  0  0  0  0  0  0  0  0
   -0.8192    2.0952    0.0000 C   0  0  0  0  0  0  0  0  0  0  0  0
    0.3943    1.2135    0.0000 C   0  0  0  0  0  0  0  0  0  0  0  0
    1.2760    0.0000    0.0000 C   0  0  0  0  0  0  0  0  0  0  0  0
    0.3943   -1.2135    0.0000 C   0  0  0  0  0  0  0  0  0  0  0  0
   -1.0323   -0.7500    0.0000 C   0  0  0  0  0  0  0  0  0  0  0  0
   -2.3463   -0.0067    0.0000 C   0  0  0  0  0  0  0  0  0  0  0  0
   -1.0323    0.7500    0.0000 N   0  0  0  0  0  0  0  0  0  0  0  0
   -2.2458    1.6317    0.0000 C   0  0  0  0  0  0  0  0  0  0  0  0
   -2.0890    3.1235    0.0000 C   0  0  0  0  0  0  0  0  0  0  0  0
   -3.3025    4.0051    0.0000 C   0  0  0  0  0  0  0  0  0  0  0  0
   -3.1458    5.4969    0.0000 C   0  0  0  0  0  0  0  0  0  0  0  0
   -4.3593    6.3786    0.0000 C   0  0  0  0  0  0  0  0  0  0  0  0
   -5.7296    5.7685    0.0000 C   0  0  0  0  0  0  0  0  0  0  0  0
   -6.9431    6.6502    0.0000 C   0  0  0  0  0  0  0  0  0  0  0  0
   -6.7863    8.1420    0.0000 C   0  0  0  0  0  0  0  0  0  0  0  0
   -7.9999    9.0236    0.0000 C   0  0  0  0  0  0  0  0  0  0  0  0
   -9.3702    8.4135    0.0000 C   0  0  0  0  0  0  0  0  0  0  0  0
   -9.5270    6.9217    0.0000 C   0  0  0  0  0  0  0  0  0  0  0  0
   -8.3134    6.0401    0.0000 N   0  0  0  0  0  0  0  0  0  0  0  0
   -5.8864    4.2767    0.0000 C   0  0  0  0  0  0  0  0  0  0  0  0
   -4.6729    3.3950    0.0000 C   0  0  0  0  0  0  0  0  0  0  0  0
  1  2  2  0
  2  3  1  0
  3  4  1  0
  4  5  1  0
  5  6  1  0
  6  7  2  0
  7  8  1  0
  8  9  2  0
  9 10  1  0
 10 11  2  0
  5 12  1  0
 12 13  1  0
  2 14  1  0
 14 15  1  0
 15 16  1  0
 16 17  1  0
 17 18  1  0
 18 19  1  0
 19 20  1  0
 20 21  1  0
 20 22  1  0
 22 23  1  0
 23 24  1  0
 24 25  1  0
 25 26  2  0
 26 27  1  0
 27 28  2  0
 28 29  1  0
 29 30  2  0
 30 31  1  0
 31 32  2  0
 32 33  1  0
 33 34  2  0
 28 35  1  0
 35 36  2  0
 13  5  1  0
 21 15  1  0
 36 25  1  0
 11  6  1  0
 22 17  1  0
 34 29  1  0
M  END
>  <Title>  (212) 
idAAORgen6

$$$$

     RDKit          2D

 34 39  0  0  0  0  0  0  0  0999 V2000
   -5.5162   -1.2388    0.0000 C   0  0  0  0  0  0  0  0  0  0  0  0
   -4.0828   -0.7967    0.0000 C   0  0  0  0  0  0  0  0  0  0  0  0
   -4.8328    0.5023    0.0000 C   0  0  0  0  0  0  0  0  0  0  0  0
   -3.9707   -2.2925    0.0000 C   0  0  0  0  0  0  0  0  0  0  0  0
   -2.7314   -3.1375    0.0000 C   0  0  0  0  0  0  0  0  0  0  0  0
   -1.2980   -2.6953    0.0000 C   0  0  0  0  0  0  0  0  0  0  0  0
   -0.7500   -1.2990    0.0000 C   0  0  0  0  0  0  0  0  0  0  0  0
    0.0950   -2.5384    0.0000 C   0  0  0  0  0  0  0  0  0  0  0  0
    0.7500   -1.2990    0.0000 C   0  0  0  0  0  0  0  0  0  0  0  0
    1.5000   -2.5981    0.0000 C   0  0  0  0  0  0  0  0  0  0  0  0
    3.0000   -2.5981    0.0000 C   0  0  0  0  0  0  0  0  0  0  0  0
    3.7500   -3.8971    0.0000 C   0  0  0  0  0  0  0  0  0  0  0  0
    5.2418   -4.0539    0.0000 C   0  0  0  0  0  0  0  0  0  0  0  0
    5.5537   -5.5211    0.0000 C   0  0  0  0  0  0  0  0  0  0  0  0
    4.2546   -6.2711    0.0000 C   0  0  0  0  0  0  0  0  0  0  0  0
    3.1399   -5.2674    0.0000 C   0  0  0  0  0  0  0  0  0  0  0  0
    1.5000    0.0000    0.0000 C   0  0  0  0  0  0  0  0  0  0  0  0
    0.7500    1.2990    0.0000 C   0  0  0  0  0  0  0  0  0  0  0  0
   -0.7500    1.2990    0.0000 C   0  0  0  0  0  0  0  0  0  0  0  0
   -1.5000    0.0000    0.0000 C   0  0  0  0  0  0  0  0  0  0  0  0
   -2.1508    1.3515    0.0000 C   0  0  0  0  0  0  0  0  0  0  0  0
   -2.9832    0.2236    0.0000 C   0  0  0  0  0  0  0  0  0  0  0  0
   -3.4254    1.6569    0.0000 C   0  0  0  0  0  0  0  0  0  0  0  0
   -4.8878    1.9907    0.0000 C   0  0  0  0  0  0  0  0  0  0  0  0
   -5.3299    3.4241    0.0000 C   0  0  0  0  0  0  0  0  0  0  0  0
   -6.7923    3.7578    0.0000 C   0  0  0  0  0  0  0  0  0  0  0  0
   -7.2344    5.1912    0.0000 C   0  0  0  0  0  0  0  0  0  0  0  0
   -6.2142    6.2908    0.0000 C   0  0  0  0  0  0  0  0  0  0  0  0
   -4.7518    5.9570    0.0000 C   0  0  0  0  0  0  0  0  0  0  0  0
   -6.3792    3.1004    0.0000 C   0  0  0  0  0  0  0  0  0  0  0  0
   -7.8126    2.6583    0.0000 C   0  0  0  0  0  0  0  0  0  0  0  0
   -8.2547    4.0916    0.0000 C   0  0  0  0  0  0  0  0  0  0  0  0
   -6.3502    2.3245    0.0000 C   0  0  0  0  0  0  0  0  0  0  0  0
   -4.3096    4.5236    0.0000 C   0  0  0  0  0  0  0  0  0  0  0  0
  1  2  1  0
  2  3  1  0
  2  4  1  0
  4  5  1  0
  5  6  1  0
  6  7  1  0
  7  8  1  0
  7  9  1  0
  9 10  1  0
 10 11  1  0
 11 12  1  0
 12 13  1  0
 13 14  1  0
 14 15  1  0
 15 16  1  0
  9 17  1  0
 17 18  1  0
 18 19  1  0
 19 20  1  0
 20 21  1  0
 20 22  1  0
 22 23  1  0
 23 24  1  0
 24 25  1  0
 25 26  1  0
 26 27  1  0
 27 28  1  0
 28 29  1  0
 29 30  1  0
 30 31  1  0
 31 32  1  0
 31 33  1  0
 29 34  1  0
 22  2  1  0
 33 25  1  0
 20  7  1  0
 34 25  1  0
 16 12  1  0
 32 27  1  0
M  END
>  <Title>  (213) 
idAAOSgen6

$$$$

     RDKit          2D

 52 57  0  0  0  0  0  0  0  0999 V2000
    2.9888   -2.4152    0.0000 O   0  0  0  0  0  0  0  0  0  0  0  0
    1.5000   -2.5981    0.0000 C   0  0  0  0  0  0  0  0  0  0  0  0
    0.7500   -3.8971    0.0000 N   0  0  0  0  0  0  0  0  0  0  0  0
    1.5000   -5.1962    0.0000 C   0  0  0  0  0  0  0  0  0  0  0  0
    0.7500   -6.4952    0.0000 C   0  0  0  0  0  0  0  0  0  0  0  0
    1.5000   -7.7942    0.0000 C   0  0  0  0  0  0  0  0  0  0  0  0
    3.0000   -7.7942    0.0000 C   0  0  0  0  0  0  0  0  0  0  0  0
    3.7500   -6.4952    0.0000 C   0  0  0  0  0  0  0  0  0  0  0  0
    3.0000   -5.1962    0.0000 C   0  0  0  0  0  0  0  0  0  0  0  0
    0.7500   -1.2990    0.0000 C   0  0  0  0  0  0  0  0  0  0  0  0
    1.5000    0.0000    0.0000 C   0  0  0  0  0  0  0  0  0  0  0  0
    0.7500    1.2990    0.0000 C   0  0  0  0  0  0  0  0  0  0  0  0
   -0.7500    1.2990    0.0000 C   0  0  0  0  0  0  0  0  0  0  0  0
   -1.5000    0.0000    0.0000 C   0  0  0  0  0  0  0  0  0  0  0  0
   -0.7500   -1.2990    0.0000 C   0  0  0  0  0  0  0  0  0  0  0  0
   -0.0000   -0.0000    0.0000 C   0  0  0  0  0  0  0  0  0  0  0  0
    0.7500   -1.2990    0.0000 C   0  0  0  0  0  0  0  0  0  0  0  0
    2.2500   -1.2990    0.0000 O   0  0  0  0  0  0  0  0  0  0  0  0
   -0.0000   -2.5981    0.0000 N   0  0  0  0  0  0  0  0  0  0  0  0
    0.7500   -3.8971    0.0000 C   0  0  0  0  0  0  0  0  0  0  0  0
   -0.0000   -5.1962    0.0000 C   0  0  0  0  0  0  0  0  0  0  0  0
    0.7500   -6.4952    0.0000 C   0  0  0  0  0  0  0  0  0  0  0  0
   -0.0000   -7.7942    0.0000 C   0  0  0  0  0  0  0  0  0  0  0  0
    0.7500   -9.0933    0.0000 C   0  0  0  0  0  0  0  0  0  0  0  0
    2.2500   -9.0933    0.0000 C   0  0  0  0  0  0  0  0  0  0  0  0
    3.0000   -7.7942    0.0000 C   0  0  0  0  0  0  0  0  0  0  0  0
    2.2500   -6.4952    0.0000 C   0  0  0  0  0  0  0  0  0  0  0  0
    2.2500   -3.8971    0.0000 C   0  0  0  0  0  0  0  0  0  0  0  0
    3.1528   -2.6992    0.0000 O   0  0  0  0  0  0  0  0  0  0  0  0
    3.0000   -5.1962    0.0000 N   0  0  0  0  0  0  0  0  0  0  0  0
    4.5000   -5.1962    0.0000 C   0  0  0  0  0  0  0  0  0  0  0  0
    5.2500   -6.4952    0.0000 C   0  0  0  0  0  0  0  0  0  0  0  0
    6.7500   -6.4952    0.0000 C   0  0  0  0  0  0  0  0  0  0  0  0
    7.5000   -7.7942    0.0000 C   0  0  0  0  0  0  0  0  0  0  0  0
    9.0000   -7.7942    0.0000 C   0  0  0  0  0  0  0  0  0  0  0  0
    9.7500   -6.4952    0.0000 C   0  0  0  0  0  0  0  0  0  0  0  0
    9.0000   -5.1962    0.0000 C   0  0  0  0  0  0  0  0  0  0  0  0
    7.5000   -5.1962    0.0000 C   0  0  0  0  0  0  0  0  0  0  0  0
    5.2500   -3.8971    0.0000 C   0  0  0  0  0  0  0  0  0  0  0  0
    4.5000   -2.5981    0.0000 O   0  0  0  0  0  0  0  0  0  0  0  0
    6.7500   -3.8971    0.0000 N   0  0  0  0  0  0  0  0  0  0  0  0
    7.5000   -2.5981    0.0000 C   0  0  0  0  0  0  0  0  0  0  0  0
    9.0000   -2.5981    0.0000 C   0  0  0  0  0  0  0  0  0  0  0  0
    9.7500   -1.2990    0.0000 C   0  0  0  0  0  0  0  0  0  0  0  0
   11.2500   -1.2990    0.0000 C   0  0  0  0  0  0  0  0  0  0  0  0
   12.0000   -0.0000    0.0000 C   0  0  0  0  0  0  0  0  0  0  0  0
   11.2500    1.2990    0.0000 C   0  0  0  0  0  0  0  0  0  0  0  0
    9.7500    1.2990    0.0000 C   0  0  0  0  0  0  0  0  0  0  0  0
    9.0000   -0.0000    0.0000 C   0  0  0  0  0  0  0  0  0  0  0  0
    6.7500   -1.2990    0.0000 C   0  0  0  0  0  0  0  0  0  0  0  0
    5.2500   -1.2990    0.0000 O   0  0  0  0  0  0  0  0  0  0  0  0
    7.5000   -0.0000    0.0000 O   0  0  0  0  0  0  0  0  0  0  0  0
  1  2  2  0
  2  3  1  0
  3  4  1  0
  4  5  2  0
  5  6  1  0
  6  7  2  0
  7  8  1  0
  8  9  2  0
  2 10  1  0
 10 11  1  0
 11 12  1  0
 12 13  1  0
 13 14  1  0
 14 15  1  0
 14 16  1  0
 16 17  1  0
 17 18  2  0
 17 19  1  0
 19 20  1  0
 20 21  1  0
 21 22  1  0
 22 23  2  0
 23 24  1  0
 24 25  2  0
 25 26  1  0
 26 27  2  0
 20 28  1  0
 28 29  2  0
 28 30  1  0
 30 31  1  0
 31 32  1  0
 32 33  1  0
 33 34  2  0
 34 35  1  0
 35 36  2  0
 36 37  1  0
 37 38  2  0
 31 39  1  0
 39 40  2  0
 39 41  1  0
 41 42  1  0
 42 43  1  0
 43 44  1  0
 44 45  2  0
 45 46  1  0
 46 47  2  0
 47 48  1  0
 48 49  2  0
 42 50  1  0
 50 51  2  0
 50 52  1  0
  9  4  1  0
 15 10  1  0
 27 22  1  0
 38 33  1  0
 49 44  1  0
 16 12  1  0
M  END
>  <Title>  (214) 
idAAOTgen6

$$$$

     RDKit          2D

 30 34  0  0  0  0  0  0  0  0999 V2000
   -1.8760    4.4687    0.0000 O   0  0  0  0  0  0  0  0  0  0  0  0
   -3.2463    3.8586    0.0000 C   0  0  0  0  0  0  0  0  0  0  0  0
   -4.4598    4.7402    0.0000 N   0  0  0  0  0  0  0  0  0  0  0  0
   -4.3030    6.2320    0.0000 C   0  0  0  0  0  0  0  0  0  0  0  0
   -5.5165    7.1137    0.0000 C   0  0  0  0  0  0  0  0  0  0  0  0
   -6.5955    6.0717    0.0000 C   0  0  0  0  0  0  0  0  0  0  0  0
   -8.0374    6.4852    0.0000 C   0  0  0  0  0  0  0  0  0  0  0  0
   -9.1164    5.4432    0.0000 C   0  0  0  0  0  0  0  0  0  0  0  0
   -8.7536    3.9877    0.0000 C   0  0  0  0  0  0  0  0  0  0  0  0
   -7.3117    3.5743    0.0000 C   0  0  0  0  0  0  0  0  0  0  0  0
   -6.2327    4.6163    0.0000 C   0  0  0  0  0  0  0  0  0  0  0  0
   -6.3553    8.3573    0.0000 C   0  0  0  0  0  0  0  0  0  0  0  0
   -4.8590    8.4619    0.0000 C   0  0  0  0  0  0  0  0  0  0  0  0
   -3.4031    2.3668    0.0000 N   0  0  0  0  0  0  0  0  0  0  0  0
   -2.1895    1.4851    0.0000 C   0  0  0  0  0  0  0  0  0  0  0  0
   -0.8192    2.0952    0.0000 C   0  0  0  0  0  0  0  0  0  0  0  0
    0.3943    1.2135    0.0000 C   0  0  0  0  0  0  0  0  0  0  0  0
    1.2760    0.0000    0.0000 C   0  0  0  0  0  0  0  0  0  0  0  0
    0.3943   -1.2135    0.0000 C   0  0  0  0  0  0  0  0  0  0  0  0
   -1.0323   -0.7500    0.0000 C   0  0  0  0  0  0  0  0  0  0  0  0
   -2.3463   -0.0067    0.0000 C   0  0  0  0  0  0  0  0  0  0  0  0
   -1.0323    0.7500    0.0000 N   0  0  0  0  0  0  0  0  0  0  0  0
   -2.2458    1.6317    0.0000 C   0  0  0  0  0  0  0  0  0  0  0  0
   -2.0890    3.1235    0.0000 C   0  0  0  0  0  0  0  0  0  0  0  0
   -3.3025    4.0051    0.0000 C   0  0  0  0  0  0  0  0  0  0  0  0
   -3.1458    5.4969    0.0000 C   0  0  0  0  0  0  0  0  0  0  0  0
   -4.3593    6.3786    0.0000 C   0  0  0  0  0  0  0  0  0  0  0  0
   -5.7296    5.7685    0.0000 C   0  0  0  0  0  0  0  0  0  0  0  0
   -5.8864    4.2767    0.0000 C   0  0  0  0  0  0  0  0  0  0  0  0
   -4.6729    3.3950    0.0000 N   0  0  0  0  0  0  0  0  0  0  0  0
  1  2  2  0
  2  3  1  0
  3  4  1  0
  4  5  1  0
  5  6  1  0
  6  7  2  0
  7  8  1  0
  8  9  2  0
  9 10  1  0
 10 11  2  0
  5 12  1  0
 12 13  1  0
  2 14  1  0
 14 15  1  0
 15 16  1  0
 16 17  1  0
 17 18  1  0
 18 19  1  0
 19 20  1  0
 20 21  1  0
 20 22  1  0
 22 23  1  0
 23 24  1  0
 24 25  1  0
 25 26  2  0
 26 27  1  0
 27 28  2  0
 28 29  1  0
 29 30  2  0
 13  5  1  0
 21 15  1  0
 30 25  1  0
 11  6  1  0
 22 17  1  0
M  END
>  <Title>  (215) 
idAAOUgen6

$$$$

     RDKit          2D

 57 62  0  0  0  0  0  0  0  0999 V2000
    6.7500   -3.8971    0.0000 N   0  0  0  0  0  0  0  0  0  0  0  0
    5.2500   -3.8971    0.0000 C   0  0  0  0  0  0  0  0  0  0  0  0
    4.5000   -2.5981    0.0000 O   0  0  0  0  0  0  0  0  0  0  0  0
    4.5000   -5.1962    0.0000 C   0  0  0  0  0  0  0  0  0  0  0  0
    5.2500   -6.4952    0.0000 C   0  0  0  0  0  0  0  0  0  0  0  0
    6.7500   -6.4952    0.0000 C   0  0  0  0  0  0  0  0  0  0  0  0
    7.5000   -7.7942    0.0000 C   0  0  0  0  0  0  0  0  0  0  0  0
    9.0000   -7.7942    0.0000 C   0  0  0  0  0  0  0  0  0  0  0  0
    9.7500   -6.4952    0.0000 C   0  0  0  0  0  0  0  0  0  0  0  0
    9.0000   -5.1962    0.0000 C   0  0  0  0  0  0  0  0  0  0  0  0
    7.5000   -5.1962    0.0000 C   0  0  0  0  0  0  0  0  0  0  0  0
    3.0000   -5.1962    0.0000 N   0  0  0  0  0  0  0  0  0  0  0  0
    2.2500   -3.8971    0.0000 C   0  0  0  0  0  0  0  0  0  0  0  0
    3.0000   -2.5981    0.0000 O   0  0  0  0  0  0  0  0  0  0  0  0
    0.7500   -3.8971    0.0000 C   0  0  0  0  0  0  0  0  0  0  0  0
   -0.0000   -5.1962    0.0000 C   0  0  0  0  0  0  0  0  0  0  0  0
    0.7500   -6.4952    0.0000 C   0  0  0  0  0  0  0  0  0  0  0  0
   -0.0000   -7.7942    0.0000 C   0  0  0  0  0  0  0  0  0  0  0  0
    0.7500   -9.0933    0.0000 C   0  0  0  0  0  0  0  0  0  0  0  0
    2.2500   -9.0933    0.0000 C   0  0  0  0  0  0  0  0  0  0  0  0
    3.0000   -7.7942    0.0000 C   0  0  0  0  0  0  0  0  0  0  0  0
    2.2500   -6.4952    0.0000 C   0  0  0  0  0  0  0  0  0  0  0  0
   -0.0000   -2.5981    0.0000 N   0  0  0  0  0  0  0  0  0  0  0  0
    0.7500   -1.2990    0.0000 C   0  0  0  0  0  0  0  0  0  0  0  0
    2.2500   -1.2990    0.0000 O   0  0  0  0  0  0  0  0  0  0  0  0
   -0.0000    0.0000    0.0000 C   0  0  0  0  0  0  0  0  0  0  0  0
   -1.5000    0.0000    0.0000 C   0  0  0  0  0  0  0  0  0  0  0  0
   -0.7500   -1.2990    0.0000 C   0  0  0  0  0  0  0  0  0  0  0  0
    0.7500   -1.2990    0.0000 C   0  0  0  0  0  0  0  0  0  0  0  0
    1.5000   -2.5981    0.0000 N   0  0  0  0  0  0  0  0  0  0  0  0
    0.7500   -3.8971    0.0000 C   0  0  0  0  0  0  0  0  0  0  0  0
   -0.7500   -3.8971    0.0000 O   0  0  0  0  0  0  0  0  0  0  0  0
    1.5000   -5.1962    0.0000 C   0  0  0  0  0  0  0  0  0  0  0  0
    0.7500   -6.4952    0.0000 C   0  0  0  0  0  0  0  0  0  0  0  0
    1.5000   -7.7942    0.0000 C   0  0  0  0  0  0  0  0  0  0  0  0
    0.7500   -9.0933    0.0000 C   0  0  0  0  0  0  0  0  0  0  0  0
    1.5000  -10.3923    0.0000 C   0  0  0  0  0  0  0  0  0  0  0  0
    3.0000  -10.3923    0.0000 C   0  0  0  0  0  0  0  0  0  0  0  0
    3.7500   -9.0933    0.0000 C   0  0  0  0  0  0  0  0  0  0  0  0
    3.0000   -7.7942    0.0000 C   0  0  0  0  0  0  0  0  0  0  0  0
    3.0000   -5.1962    0.0000 C   0  0  0  0  0  0  0  0  0  0  0  0
    3.7500   -3.8971    0.0000 O   0  0  0  0  0  0  0  0  0  0  0  0
    3.7500   -6.4952    0.0000 C   0  0  0  0  0  0  0  0  0  0  0  0
    5.2500   -6.4952    0.0000 C   0  0  0  0  0  0  0  0  0  0  0  0
    6.0000   -7.7942    0.0000 C   0  0  0  0  0  0  0  0  0  0  0  0
    7.5000   -7.7942    0.0000 C   0  0  0  0  0  0  0  0  0  0  0  0
    8.2500   -9.0933    0.0000 C   0  0  0  0  0  0  0  0  0  0  0  0
    9.7500   -9.0933    0.0000 C   0  0  0  0  0  0  0  0  0  0  0  0
   10.5000   -7.7942    0.0000 C   0  0  0  0  0  0  0  0  0  0  0  0
    9.7500   -6.4952    0.0000 C   0  0  0  0  0  0  0  0  0  0  0  0
    8.2500   -6.4952    0.0000 C   0  0  0  0  0  0  0  0  0  0  0  0
    6.0000   -5.1962    0.0000 C   0  0  0  0  0  0  0  0  0  0  0  0
    5.5866   -3.7542    0.0000 O   0  0  0  0  0  0  0  0  0  0  0  0
    7.4554   -4.8332    0.0000 O   0  0  0  0  0  0  0  0  0  0  0  0
    1.5000    0.0000    0.0000 C   0  0  0  0  0  0  0  0  0  0  0  0
    0.7500    1.2990    0.0000 C   0  0  0  0  0  0  0  0  0  0  0  0
   -0.7500    1.2990    0.0000 C   0  0  0  0  0  0  0  0  0  0  0  0
  1  2  1  0
  2  3  2  0
  2  4  1  0
  4  5  1  0
  5  6  1  0
  6  7  2  0
  7  8  1  0
  8  9  2  0
  9 10  1  0
 10 11  2  0
  4 12  1  0
 12 13  1  0
 13 14  2  0
 13 15  1  0
 15 16  1  0
 16 17  1  0
 17 18  2  0
 18 19  1  0
 19 20  2  0
 20 21  1  0
 21 22  2  0
 15 23  1  0
 23 24  1  0
 24 25  2  0
 24 26  1  0
 26 27  1  0
 27 28  1  0
 28 29  1  0
 29 30  1  0
 30 31  1  0
 31 32  2  0
 31 33  1  0
 33 34  1  0
 34 35  1  0
 35 36  2  0
 36 37  1  0
 37 38  2  0
 38 39  1  0
 39 40  2  0
 33 41  1  0
 41 42  2  0
 41 43  1  0
 43 44  1  0
 44 45  1  0
 45 46  1  0
 46 47  2  0
 47 48  1  0
 48 49  2  0
 49 50  1  0
 50 51  2  0
 44 52  1  0
 52 53  2  0
 52 54  1  0
 29 55  1  0
 55 56  1  0
 56 57  1  0
 11  6  1  0
 22 17  1  0
 56 26  1  0
 57 27  1  0
 40 35  1  0
 51 46  1  0
M  END
>  <Title>  (216) 
idAAOVgen6

$$$$

     RDKit          2D

 29 33  0  0  0  0  0  0  0  0999 V2000
    3.9222  -11.0448    0.0000 C   0  0  0  0  0  0  0  0  0  0  0  0
    2.8075  -10.0411    0.0000 C   0  0  0  0  0  0  0  0  0  0  0  0
    1.3809  -10.5046    0.0000 C   0  0  0  0  0  0  0  0  0  0  0  0
    3.1193   -8.5739    0.0000 C   0  0  0  0  0  0  0  0  0  0  0  0
    2.0046   -7.5702    0.0000 C   0  0  0  0  0  0  0  0  0  0  0  0
    1.3945   -8.9405    0.0000 C   0  0  0  0  0  0  0  0  0  0  0  0
   -0.0973   -8.7837    0.0000 C   0  0  0  0  0  0  0  0  0  0  0  0
   -0.4091   -7.3165    0.0000 C   0  0  0  0  0  0  0  0  0  0  0  0
    0.8899   -6.5665    0.0000 C   0  0  0  0  0  0  0  0  0  0  0  0
   -0.2248   -5.5628    0.0000 C   0  0  0  0  0  0  0  0  0  0  0  0
    1.5000   -5.1962    0.0000 C   0  0  0  0  0  0  0  0  0  0  0  0
    0.7500   -3.8971    0.0000 C   0  0  0  0  0  0  0  0  0  0  0  0
    1.5000   -2.5981    0.0000 C   0  0  0  0  0  0  0  0  0  0  0  0
    0.7500   -1.2990    0.0000 C   0  0  0  0  0  0  0  0  0  0  0  0
    1.5000    0.0000    0.0000 C   0  0  0  0  0  0  0  0  0  0  0  0
    0.7500    1.2990    0.0000 C   0  0  0  0  0  0  0  0  0  0  0  0
   -0.7500    1.2990    0.0000 C   0  0  0  0  0  0  0  0  0  0  0  0
   -1.5000    0.0000    0.0000 C   0  0  0  0  0  0  0  0  0  0  0  0
    1.7010   -0.7500    0.0000 C   0  0  0  0  0  0  0  0  0  0  0  0
    3.0000   -0.0000    0.0000 C   0  0  0  0  0  0  0  0  0  0  0  0
    2.2500    1.2990    0.0000 C   0  0  0  0  0  0  0  0  0  0  0  0
    2.2500   -1.2990    0.0000 C   0  0  0  0  0  0  0  0  0  0  0  0
   -0.7500   -1.2990    0.0000 C   0  0  0  0  0  0  0  0  0  0  0  0
    2.9918   -5.3529    0.0000 C   0  0  0  0  0  0  0  0  0  0  0  0
    3.9955   -4.2382    0.0000 C   0  0  0  0  0  0  0  0  0  0  0  0
    5.1102   -5.2419    0.0000 C   0  0  0  0  0  0  0  0  0  0  0  0
    2.8808   -3.2345    0.0000 C   0  0  0  0  0  0  0  0  0  0  0  0
    4.9992   -3.1235    0.0000 C   0  0  0  0  0  0  0  0  0  0  0  0
    3.3037   -6.8202    0.0000 C   0  0  0  0  0  0  0  0  0  0  0  0
  1  2  1  0
  2  3  1  0
  2  4  1  0
  4  5  1  0
  5  6  1  0
  6  7  1  0
  7  8  1  0
  8  9  1  0
  9 10  1  0
  9 11  1  0
 11 12  1  0
 12 13  1  0
 13 14  1  0
 14 15  1  0
 15 16  1  0
 16 17  1  0
 17 18  1  0
 18 19  1  0
 19 20  1  0
 20 21  1  0
 20 22  1  0
 18 23  1  0
 11 24  1  0
 24 25  1  0
 25 26  1  0
 25 27  1  0
 25 28  1  0
 24 29  1  0
  9  5  1  0
 22 14  1  0
 29  5  1  0
 23 14  1  0
 21 16  1  0
M  END
>  <Title>  (217) 
idAAOWgen6

$$$$

     RDKit          2D

 32 36  0  0  0  0  0  0  0  0999 V2000
    2.2340    6.4173    0.0000 O   0  0  0  0  0  0  0  0  0  0  0  0
    0.7716    6.7511    0.0000 C   0  0  0  0  0  0  0  0  0  0  0  0
    0.3295    8.1845    0.0000 N   0  0  0  0  0  0  0  0  0  0  0  0
    1.3497    9.2840    0.0000 C   0  0  0  0  0  0  0  0  0  0  0  0
    0.9076   10.7174    0.0000 C   0  0  0  0  0  0  0  0  0  0  0  0
    1.9279   11.8170    0.0000 C   0  0  0  0  0  0  0  0  0  0  0  0
    3.2380   12.5475    0.0000 C   0  0  0  0  0  0  0  0  0  0  0  0
    4.3376   11.5272    0.0000 C   0  0  0  0  0  0  0  0  0  0  0  0
    3.7070   10.1662    0.0000 C   0  0  0  0  0  0  0  0  0  0  0  0
    2.8121    8.9503    0.0000 C   0  0  0  0  0  0  0  0  0  0  0  0
    2.2177   10.3453    0.0000 N   0  0  0  0  0  0  0  0  0  0  0  0
    1.1975    9.2457    0.0000 C   0  0  0  0  0  0  0  0  0  0  0  0
   -0.2649    9.5795    0.0000 C   0  0  0  0  0  0  0  0  0  0  0  0
   -1.2852    8.4799    0.0000 C   0  0  0  0  0  0  0  0  0  0  0  0
   -2.7476    8.8137    0.0000 C   0  0  0  0  0  0  0  0  0  0  0  0
   -3.7678    7.7141    0.0000 C   0  0  0  0  0  0  0  0  0  0  0  0
   -3.3257    6.2807    0.0000 C   0  0  0  0  0  0  0  0  0  0  0  0
   -1.8633    5.9469    0.0000 C   0  0  0  0  0  0  0  0  0  0  0  0
   -0.8430    7.0465    0.0000 C   0  0  0  0  0  0  0  0  0  0  0  0
   -0.2487    5.6515    0.0000 N   0  0  0  0  0  0  0  0  0  0  0  0
    0.1935    4.2182    0.0000 C   0  0  0  0  0  0  0  0  0  0  0  0
    1.6559    3.8844    0.0000 C   0  0  0  0  0  0  0  0  0  0  0  0
    2.0980    2.4510    0.0000 C   0  0  0  0  0  0  0  0  0  0  0  0
    1.0777    1.3515    0.0000 C   0  0  0  0  0  0  0  0  0  0  0  0
    2.5610    1.1279    0.0000 O   0  0  0  0  0  0  0  0  0  0  0  0
    1.7286    0.0000    0.0000 C   0  0  0  0  0  0  0  0  0  0  0  0
    1.0777   -1.3515    0.0000 C   0  0  0  0  0  0  0  0  0  0  0  0
   -0.3846   -1.6852    0.0000 C   0  0  0  0  0  0  0  0  0  0  0  0
   -1.5574   -0.7500    0.0000 C   0  0  0  0  0  0  0  0  0  0  0  0
   -1.5574    0.7500    0.0000 C   0  0  0  0  0  0  0  0  0  0  0  0
   -0.3846    1.6852    0.0000 C   0  0  0  0  0  0  0  0  0  0  0  0
   -0.8268    3.1186    0.0000 C   0  0  0  0  0  0  0  0  0  0  0  0
  1  2  2  0
  2  3  1  0
  3  4  1  0
  4  5  1  0
  5  6  1  0
  6  7  1  0
  7  8  1  0
  8  9  1  0
  9 10  1  0
  9 11  1  0
 11 12  1  0
 12 13  1  0
 13 14  1  0
 14 15  2  0
 15 16  1  0
 16 17  2  0
 17 18  1  0
 18 19  2  0
  2 20  1  0
 20 21  1  0
 21 22  1  0
 22 23  1  0
 23 24  1  0
 24 25  1  0
 24 26  1  0
 26 27  1  0
 27 28  1  0
 28 29  1  0
 29 30  1  0
 30 31  1  0
 31 32  1  0
 10  4  1  0
 19 14  1  0
 32 21  1  0
 11  6  1  0
 31 24  1  0
M  END
>  <Title>  (218) 
idAAOXgen6

$$$$

     RDKit          2D

 21 23  0  0  0  0  0  0  0  0999 V2000
    2.6491    0.9642    0.0000 C   0  0  0  0  0  0  0  0  0  0  0  0
    1.5000    0.0000    0.0000 C   0  0  0  0  0  0  0  0  0  0  0  0
    2.6491   -0.9642    0.0000 C   0  0  0  0  0  0  0  0  0  0  0  0
    2.3886   -2.4414    0.0000 O   0  0  0  0  0  0  0  0  0  0  0  0
    0.7500   -1.2990    0.0000 C   0  0  0  0  0  0  0  0  0  0  0  0
   -0.7500   -1.2990    0.0000 C   0  0  0  0  0  0  0  0  0  0  0  0
   -1.5000    0.0000    0.0000 C   0  0  0  0  0  0  0  0  0  0  0  0
   -0.7500    1.2990    0.0000 C   0  0  0  0  0  0  0  0  0  0  0  0
   -2.2500    1.2990    0.0000 C   0  0  0  0  0  0  0  0  0  0  0  0
   -1.5000    2.5981    0.0000 C   0  0  0  0  0  0  0  0  0  0  0  0
   -3.0000    2.5981    0.0000 C   0  0  0  0  0  0  0  0  0  0  0  0
   -3.7500    3.8971    0.0000 C   0  0  0  0  0  0  0  0  0  0  0  0
   -5.2500    3.8971    0.0000 C   0  0  0  0  0  0  0  0  0  0  0  0
   -6.1317    2.6836    0.0000 C   0  0  0  0  0  0  0  0  0  0  0  0
   -7.5583    3.1471    0.0000 C   0  0  0  0  0  0  0  0  0  0  0  0
   -7.5583    4.6471    0.0000 C   0  0  0  0  0  0  0  0  0  0  0  0
   -6.1317    5.1106    0.0000 C   0  0  0  0  0  0  0  0  0  0  0  0
   -0.7500    3.8971    0.0000 C   0  0  0  0  0  0  0  0  0  0  0  0
    0.7500    3.8971    0.0000 C   0  0  0  0  0  0  0  0  0  0  0  0
    1.5000    2.5981    0.0000 C   0  0  0  0  0  0  0  0  0  0  0  0
    0.7500    1.2990    0.0000 C   0  0  0  0  0  0  0  0  0  0  0  0
  1  2  1  0
  2  3  1  0
  3  4  1  0
  2  5  1  0
  5  6  1  0
  6  7  1  0
  7  8  1  0
  8  9  1  0
  8 10  1  0
 10 11  1  0
 11 12  1  0
 12 13  1  0
 13 14  1  0
 14 15  1  0
 15 16  1  0
 16 17  1  0
 10 18  1  0
 18 19  1  0
 19 20  1  0
 20 21  1  0
 21  2  1  0
 21  8  1  0
 17 13  1  0
M  END
>  <Title>  (219) 
idAAOYgen6

$$$$

     RDKit          2D

 57 59  0  0  0  0  0  0  0  0999 V2000
    8.5568   -0.9768    0.0000 C   0  0  0  0  0  0  0  0  0  0  0  0
    8.4368   -0.0000    0.0000 C   0  0  0  0  0  0  0  0  0  0  0  0
    8.4368    1.5000    0.0000 C   0  0  0  0  0  0  0  0  0  0  0  0
    9.9368   -0.0000    0.0000 C   0  0  0  0  0  0  0  0  0  0  0  0
    6.9368    0.0000    0.0000 C   0  0  0  0  0  0  0  0  0  0  0  0
    6.7746    1.4912    0.0000 C   0  0  0  0  0  0  0  0  0  0  0  0
    6.2957    2.9127    0.0000 C   0  0  0  0  0  0  0  0  0  0  0  0
    5.5223    4.1980    0.0000 C   0  0  0  0  0  0  0  0  0  0  0  0
    6.7165    5.1057    0.0000 C   0  0  0  0  0  0  0  0  0  0  0  0
    6.4167    6.5755    0.0000 C   0  0  0  0  0  0  0  0  0  0  0  0
    7.3789    7.7262    0.0000 C   0  0  0  0  0  0  0  0  0  0  0  0
    8.8785    7.6914    0.0000 C   0  0  0  0  0  0  0  0  0  0  0  0
    9.7863    6.4972    0.0000 C   0  0  0  0  0  0  0  0  0  0  0  0
    9.4187    5.0430    0.0000 C   0  0  0  0  0  0  0  0  0  0  0  0
    8.0525    4.4237    0.0000 C   0  0  0  0  0  0  0  0  0  0  0  0
    8.9602    3.2296    0.0000 C   0  0  0  0  0  0  0  0  0  0  0  0
    7.0903    3.2730    0.0000 C   0  0  0  0  0  0  0  0  0  0  0  0
    4.4908    5.2870    0.0000 C   0  0  0  0  0  0  0  0  0  0  0  0
    3.2493    6.1287    0.0000 C   0  0  0  0  0  0  0  0  0  0  0  0
    1.8558    6.6840    0.0000 C   0  0  0  0  0  0  0  0  0  0  0  0
    0.3756    6.9266    0.0000 C   0  0  0  0  0  0  0  0  0  0  0  0
   -1.1222    6.8454    0.0000 C   0  0  0  0  0  0  0  0  0  0  0  0
   -2.5676    6.4441    0.0000 C   0  0  0  0  0  0  0  0  0  0  0  0
   -3.8928    5.7415    0.0000 C   0  0  0  0  0  0  0  0  0  0  0  0
   -5.0361    4.7704    0.0000 C   0  0  0  0  0  0  0  0  0  0  0  0
   -5.9438    3.5763    0.0000 C   0  0  0  0  0  0  0  0  0  0  0  0
   -6.5737    2.2149    0.0000 C   0  0  0  0  0  0  0  0  0  0  0  0
   -6.8961    0.7500    0.0000 C   0  0  0  0  0  0  0  0  0  0  0  0
   -6.8961   -0.7500    0.0000 C   0  0  0  0  0  0  0  0  0  0  0  0
   -6.5737   -2.2149    0.0000 C   0  0  0  0  0  0  0  0  0  0  0  0
   -5.9438   -3.5763    0.0000 C   0  0  0  0  0  0  0  0  0  0  0  0
   -5.0361   -4.7704    0.0000 C   0  0  0  0  0  0  0  0  0  0  0  0
   -3.8928   -5.7415    0.0000 C   0  0  0  0  0  0  0  0  0  0  0  0
   -2.5676   -6.4441    0.0000 C   0  0  0  0  0  0  0  0  0  0  0  0
   -1.1222   -6.8454    0.0000 C   0  0  0  0  0  0  0  0  0  0  0  0
    0.3756   -6.9266    0.0000 C   0  0  0  0  0  0  0  0  0  0  0  0
    1.8558   -6.6840    0.0000 C   0  0  0  0  0  0  0  0  0  0  0  0
    3.2493   -6.1287    0.0000 C   0  0  0  0  0  0  0  0  0  0  0  0
    4.4908   -5.2870    0.0000 C   0  0  0  0  0  0  0  0  0  0  0  0
    5.5223   -4.1980    0.0000 C   0  0  0  0  0  0  0  0  0  0  0  0
    6.2957   -2.9127    0.0000 C   0  0  0  0  0  0  0  0  0  0  0  0
    6.7746   -1.4912    0.0000 C   0  0  0  0  0  0  0  0  0  0  0  0
    8.2396   -1.8137    0.0000 C   0  0  0  0  0  0  0  0  0  0  0  0
    8.6928   -3.2436    0.0000 C   0  0  0  0  0  0  0  0  0  0  0  0
    7.1979   -3.3672    0.0000 C   0  0  0  0  0  0  0  0  0  0  0  0
    7.3215   -4.8621    0.0000 C   0  0  0  0  0  0  0  0  0  0  0  0
    6.8077   -2.2166    0.0000 C   0  0  0  0  0  0  0  0  0  0  0  0
    5.7030   -3.4909    0.0000 C   0  0  0  0  0  0  0  0  0  0  0  0
    8.4807   -4.7285    0.0000 C   0  0  0  0  0  0  0  0  0  0  0  0
    9.5094   -5.8201    0.0000 C   0  0  0  0  0  0  0  0  0  0  0  0
    8.9722   -7.2206    0.0000 O   0  0  0  0  0  0  0  0  0  0  0  0
   11.0043   -5.6965    0.0000 C   0  0  0  0  0  0  0  0  0  0  0  0
   11.8397   -4.4506    0.0000 C   0  0  0  0  0  0  0  0  0  0  0  0
   11.3865   -3.0207    0.0000 C   0  0  0  0  0  0  0  0  0  0  0  0
    9.9860   -2.4835    0.0000 C   0  0  0  0  0  0  0  0  0  0  0  0
   10.8213   -1.2377    0.0000 C   0  0  0  0  0  0  0  0  0  0  0  0
    8.9472   -1.6212    0.0000 C   0  0  0  0  0  0  0  0  0  0  0  0
  1  2  1  0
  2  3  1  0
  2  4  1  0
  2  5  1  0
  5  6  1  0
  6  7  1  0
  7  8  1  0
  8  9  1  0
  9 10  1  0
 10 11  1  0
 11 12  1  0
 12 13  1  0
 13 14  1  0
 14 15  1  0
 15 16  1  0
 15 17  1  0
  8 18  1  0
 18 19  1  0
 19 20  1  0
 20 21  1  0
 21 22  1  0
 22 23  1  0
 23 24  1  0
 24 25  1  0
 25 26  1  0
 26 27  1  0
 27 28  1  0
 28 29  1  0
 29 30  1  0
 30 31  1  0
 31 32  1  0
 32 33  1  0
 33 34  1  0
 34 35  1  0
 35 36  1  0
 36 37  1  0
 37 38  1  0
 38 39  1  0
 39 40  1  0
 40 41  1  0
 41 42  1  0
 42 43  1  0
 43 44  1  0
 44 45  1  0
 45 46  1  0
 45 47  1  0
 45 48  1  0
 44 49  1  0
 49 50  1  0
 50 51  1  0
 50 52  1  0
 52 53  1  0
 53 54  1  0
 54 55  1  0
 55 56  1  0
 55 57  1  0
 42  5  1  0
 55 44  1  0
 15  9  1  0
M  END
>  <Title>  (220) 
idAAOZgen6

$$$$

     RDKit          2D

 56 61  0  0  0  0  0  0  0  0999 V2000
   -0.6860    6.2961    0.0000 O   0  0  0  0  0  0  0  0  0  0  0  0
   -0.2225    7.7227    0.0000 C   0  0  0  0  0  0  0  0  0  0  0  0
   -1.2262    8.8374    0.0000 O   0  0  0  0  0  0  0  0  0  0  0  0
    1.2447    8.0346    0.0000 C   0  0  0  0  0  0  0  0  0  0  0  0
    1.7082    9.4612    0.0000 C   0  0  0  0  0  0  0  0  0  0  0  0
    0.7045   10.5759    0.0000 C   0  0  0  0  0  0  0  0  0  0  0  0
    1.1681   12.0025    0.0000 C   0  0  0  0  0  0  0  0  0  0  0  0
    0.1644   13.1172    0.0000 C   0  0  0  0  0  0  0  0  0  0  0  0
   -1.3029   12.8053    0.0000 C   0  0  0  0  0  0  0  0  0  0  0  0
   -1.7664   11.3787    0.0000 C   0  0  0  0  0  0  0  0  0  0  0  0
   -0.7627   10.2640    0.0000 C   0  0  0  0  0  0  0  0  0  0  0  0
    2.2484    6.9199    0.0000 N   0  0  0  0  0  0  0  0  0  0  0  0
    1.7849    5.4933    0.0000 C   0  0  0  0  0  0  0  0  0  0  0  0
    0.3177    5.1814    0.0000 O   0  0  0  0  0  0  0  0  0  0  0  0
    2.7886    4.3786    0.0000 C   0  0  0  0  0  0  0  0  0  0  0  0
    4.2558    4.6904    0.0000 C   0  0  0  0  0  0  0  0  0  0  0  0
    4.7193    6.1170    0.0000 C   0  0  0  0  0  0  0  0  0  0  0  0
    6.1865    6.4289    0.0000 C   0  0  0  0  0  0  0  0  0  0  0  0
    6.6501    7.8555    0.0000 C   0  0  0  0  0  0  0  0  0  0  0  0
    5.6464    8.9702    0.0000 C   0  0  0  0  0  0  0  0  0  0  0  0
    4.1791    8.6583    0.0000 C   0  0  0  0  0  0  0  0  0  0  0  0
    3.7156    7.2317    0.0000 C   0  0  0  0  0  0  0  0  0  0  0  0
    2.3250    2.9520    0.0000 N   0  0  0  0  0  0  0  0  0  0  0  0
    0.8578    2.6401    0.0000 C   0  0  0  0  0  0  0  0  0  0  0  0
   -0.1459    3.7548    0.0000 O   0  0  0  0  0  0  0  0  0  0  0  0
    0.3943    1.2135    0.0000 C   0  0  0  0  0  0  0  0  0  0  0  0
    1.2760    0.0000    0.0000 C   0  0  0  0  0  0  0  0  0  0  0  0
    0.3943   -1.2135    0.0000 C   0  0  0  0  0  0  0  0  0  0  0  0
   -1.0323   -0.7500    0.0000 C   0  0  0  0  0  0  0  0  0  0  0  0
   -1.0323    0.7500    0.0000 C   0  0  0  0  0  0  0  0  0  0  0  0
    0.3943    0.2865    0.0000 C   0  0  0  0  0  0  0  0  0  0  0  0
    1.6078    1.1682    0.0000 C   0  0  0  0  0  0  0  0  0  0  0  0
    2.9781    0.5580    0.0000 O   0  0  0  0  0  0  0  0  0  0  0  0
    1.4510    2.6599    0.0000 N   0  0  0  0  0  0  0  0  0  0  0  0
    2.6646    3.5416    0.0000 C   0  0  0  0  0  0  0  0  0  0  0  0
    2.5078    5.0334    0.0000 C   0  0  0  0  0  0  0  0  0  0  0  0
    3.7213    5.9151    0.0000 C   0  0  0  0  0  0  0  0  0  0  0  0
    3.5645    7.4069    0.0000 C   0  0  0  0  0  0  0  0  0  0  0  0
    4.7780    8.2885    0.0000 C   0  0  0  0  0  0  0  0  0  0  0  0
    6.1483    7.6784    0.0000 C   0  0  0  0  0  0  0  0  0  0  0  0
    6.3051    6.1866    0.0000 C   0  0  0  0  0  0  0  0  0  0  0  0
    5.0916    5.3050    0.0000 C   0  0  0  0  0  0  0  0  0  0  0  0
    4.0349    2.9315    0.0000 C   0  0  0  0  0  0  0  0  0  0  0  0
    4.1917    1.4397    0.0000 O   0  0  0  0  0  0  0  0  0  0  0  0
    5.2484    3.8132    0.0000 N   0  0  0  0  0  0  0  0  0  0  0  0
    6.6187    3.2031    0.0000 C   0  0  0  0  0  0  0  0  0  0  0  0
    7.8322    4.0848    0.0000 C   0  0  0  0  0  0  0  0  0  0  0  0
    9.2026    3.4747    0.0000 C   0  0  0  0  0  0  0  0  0  0  0  0
   10.4161    4.3563    0.0000 C   0  0  0  0  0  0  0  0  0  0  0  0
   11.7864    3.7462    0.0000 C   0  0  0  0  0  0  0  0  0  0  0  0
   11.9432    2.2544    0.0000 C   0  0  0  0  0  0  0  0  0  0  0  0
   10.7297    1.3728    0.0000 C   0  0  0  0  0  0  0  0  0  0  0  0
    9.3594    1.9829    0.0000 C   0  0  0  0  0  0  0  0  0  0  0  0
    6.7755    1.7113    0.0000 C   0  0  0  0  0  0  0  0  0  0  0  0
    5.5620    0.8296    0.0000 O   0  0  0  0  0  0  0  0  0  0  0  0
    8.1458    1.1012    0.0000 O   0  0  0  0  0  0  0  0  0  0  0  0
  1  2  2  0
  2  3  1  0
  2  4  1  0
  4  5  1  0
  5  6  1  0
  6  7  2  0
  7  8  1  0
  8  9  2  0
  9 10  1  0
 10 11  2  0
  4 12  1  0
 12 13  1  0
 13 14  2  0
 13 15  1  0
 15 16  1  0
 16 17  1  0
 17 18  2  0
 18 19  1  0
 19 20  2  0
 20 21  1  0
 21 22  2  0
 15 23  1  0
 23 24  1  0
 24 25  2  0
 24 26  1  0
 26 27  1  0
 27 28  1  0
 28 29  1  0
 29 30  1  0
 30 31  1  0
 31 32  1  0
 32 33  2  0
 32 34  1  0
 34 35  1  0
 35 36  1  0
 36 37  1  0
 37 38  2  0
 38 39  1  0
 39 40  2  0
 40 41  1  0
 41 42  2  0
 35 43  1  0
 43 44  2  0
 43 45  1  0
 45 46  1  0
 46 47  1  0
 47 48  1  0
 48 49  2  0
 49 50  1  0
 50 51  2  0
 51 52  1  0
 52 53  2  0
 46 54  1  0
 54 55  2  0
 54 56  1  0
 11  6  1  0
 22 17  1  0
 30 26  1  0
 42 37  1  0
 53 48  1  0
 31 28  1  0
M  END
>  <Title>  (221) 
idAAPAgen6

$$$$

     RDKit          2D

 55 56  0  0  0  0  0  0  0  0999 V2000
    9.1517   -1.5000    0.0000 C   0  0  0  0  0  0  0  0  0  0  0  0
    9.1517    0.0000    0.0000 C   0  0  0  0  0  0  0  0  0  0  0  0
    9.1517    1.5000    0.0000 C   0  0  0  0  0  0  0  0  0  0  0  0
   10.6517    0.0000    0.0000 C   0  0  0  0  0  0  0  0  0  0  0  0
    7.6517    0.0000    0.0000 C   0  0  0  0  0  0  0  0  0  0  0  0
    7.5047   -1.4928    0.0000 C   0  0  0  0  0  0  0  0  0  0  0  0
    7.0693   -2.9282    0.0000 C   0  0  0  0  0  0  0  0  0  0  0  0
    6.3622   -4.2511    0.0000 C   0  0  0  0  0  0  0  0  0  0  0  0
    5.4106   -5.4106    0.0000 C   0  0  0  0  0  0  0  0  0  0  0  0
    4.2511   -6.3622    0.0000 C   0  0  0  0  0  0  0  0  0  0  0  0
    2.9282   -7.0693    0.0000 C   0  0  0  0  0  0  0  0  0  0  0  0
    1.4928   -7.5047    0.0000 C   0  0  0  0  0  0  0  0  0  0  0  0
   -0.0000   -7.6517    0.0000 C   0  0  0  0  0  0  0  0  0  0  0  0
   -1.4928   -7.5047    0.0000 C   0  0  0  0  0  0  0  0  0  0  0  0
   -2.9282   -7.0693    0.0000 C   0  0  0  0  0  0  0  0  0  0  0  0
   -4.2511   -6.3622    0.0000 C   0  0  0  0  0  0  0  0  0  0  0  0
   -5.4106   -5.4106    0.0000 C   0  0  0  0  0  0  0  0  0  0  0  0
   -6.3622   -4.2511    0.0000 C   0  0  0  0  0  0  0  0  0  0  0  0
   -7.0693   -2.9282    0.0000 C   0  0  0  0  0  0  0  0  0  0  0  0
   -7.5047   -1.4928    0.0000 C   0  0  0  0  0  0  0  0  0  0  0  0
   -7.6517    0.0000    0.0000 C   0  0  0  0  0  0  0  0  0  0  0  0
   -7.5047    1.4928    0.0000 C   0  0  0  0  0  0  0  0  0  0  0  0
   -7.0693    2.9282    0.0000 C   0  0  0  0  0  0  0  0  0  0  0  0
   -6.3622    4.2511    0.0000 C   0  0  0  0  0  0  0  0  0  0  0  0
   -5.4106    5.4106    0.0000 C   0  0  0  0  0  0  0  0  0  0  0  0
   -4.2511    6.3622    0.0000 C   0  0  0  0  0  0  0  0  0  0  0  0
   -2.9282    7.0693    0.0000 C   0  0  0  0  0  0  0  0  0  0  0  0
   -1.4928    7.5047    0.0000 C   0  0  0  0  0  0  0  0  0  0  0  0
    0.0000    7.6517    0.0000 C   0  0  0  0  0  0  0  0  0  0  0  0
    1.4928    7.5047    0.0000 C   0  0  0  0  0  0  0  0  0  0  0  0
    2.9282    7.0693    0.0000 C   0  0  0  0  0  0  0  0  0  0  0  0
    4.2511    6.3622    0.0000 C   0  0  0  0  0  0  0  0  0  0  0  0
    5.4106    5.4106    0.0000 C   0  0  0  0  0  0  0  0  0  0  0  0
    6.4712    6.4712    0.0000 C   0  0  0  0  0  0  0  0  0  0  0  0
    6.0830    7.9201    0.0000 C   0  0  0  0  0  0  0  0  0  0  0  0
    7.5820    7.9762    0.0000 C   0  0  0  0  0  0  0  0  0  0  0  0
    7.5259    9.4752    0.0000 C   0  0  0  0  0  0  0  0  0  0  0  0
    7.6381    6.4773    0.0000 C   0  0  0  0  0  0  0  0  0  0  0  0
    9.0809    8.0323    0.0000 C   0  0  0  0  0  0  0  0  0  0  0  0
    6.3619    9.3940    0.0000 C   0  0  0  0  0  0  0  0  0  0  0  0
    5.3835   10.5309    0.0000 C   0  0  0  0  0  0  0  0  0  0  0  0
    5.9833   11.9058    0.0000 O   0  0  0  0  0  0  0  0  0  0  0  0
    3.8845   10.4749    0.0000 C   0  0  0  0  0  0  0  0  0  0  0  0
    2.9938    9.2680    0.0000 C   0  0  0  0  0  0  0  0  0  0  0  0
    3.3820    7.8191    0.0000 C   0  0  0  0  0  0  0  0  0  0  0  0
    4.7568    7.2192    0.0000 C   0  0  0  0  0  0  0  0  0  0  0  0
    4.1423    6.7114    0.0000 C   0  0  0  0  0  0  0  0  0  0  0  0
    5.7353    6.0823    0.0000 C   0  0  0  0  0  0  0  0  0  0  0  0
    6.3622    4.2511    0.0000 C   0  0  0  0  0  0  0  0  0  0  0  0
    7.6094    5.0844    0.0000 C   0  0  0  0  0  0  0  0  0  0  0  0
    8.4427    3.8372    0.0000 C   0  0  0  0  0  0  0  0  0  0  0  0
    7.1026    6.4962    0.0000 C   0  0  0  0  0  0  0  0  0  0  0  0
    8.8566    5.9178    0.0000 C   0  0  0  0  0  0  0  0  0  0  0  0
    7.0693    2.9282    0.0000 C   0  0  0  0  0  0  0  0  0  0  0  0
    7.5047    1.4928    0.0000 C   0  0  0  0  0  0  0  0  0  0  0  0
  1  2  1  0
  2  3  1  0
  2  4  1  0
  2  5  1  0
  5  6  1  0
  6  7  1  0
  7  8  1  0
  8  9  1  0
  9 10  1  0
 10 11  1  0
 11 12  1  0
 12 13  1  0
 13 14  1  0
 14 15  1  0
 15 16  1  0
 16 17  1  0
 17 18  1  0
 18 19  1  0
 19 20  1  0
 20 21  1  0
 21 22  1  0
 22 23  1  0
 23 24  1  0
 24 25  1  0
 25 26  1  0
 26 27  1  0
 27 28  1  0
 28 29  1  0
 29 30  1  0
 30 31  1  0
 31 32  1  0
 32 33  1  0
 33 34  1  0
 34 35  1  0
 35 36  1  0
 36 37  1  0
 36 38  1  0
 36 39  1  0
 35 40  1  0
 40 41  1  0
 41 42  1  0
 41 43  1  0
 43 44  1  0
 44 45  1  0
 45 46  1  0
 46 47  1  0
 46 48  1  0
 33 49  1  0
 49 50  1  0
 50 51  1  0
 50 52  1  0
 50 53  1  0
 49 54  1  0
 54 55  1  0
 55  5  1  0
 46 35  1  0
M  END
>  <Title>  (222) 
idAAPBgen6

$$$$

     RDKit          2D

 55 60  0  0  0  0  0  0  0  0999 V2000
    2.8361   -2.5163    0.0000 O   0  0  0  0  0  0  0  0  0  0  0  0
    2.2500   -3.8971    0.0000 C   0  0  0  0  0  0  0  0  0  0  0  0
    3.2920   -4.9761    0.0000 O   0  0  0  0  0  0  0  0  0  0  0  0
    0.7500   -3.8971    0.0000 C   0  0  0  0  0  0  0  0  0  0  0  0
   -0.0000   -5.1962    0.0000 C   0  0  0  0  0  0  0  0  0  0  0  0
    0.7500   -6.4952    0.0000 C   0  0  0  0  0  0  0  0  0  0  0  0
   -0.0000   -7.7942    0.0000 C   0  0  0  0  0  0  0  0  0  0  0  0
    0.7500   -9.0933    0.0000 C   0  0  0  0  0  0  0  0  0  0  0  0
    2.2500   -9.0933    0.0000 C   0  0  0  0  0  0  0  0  0  0  0  0
    3.0000   -7.7942    0.0000 C   0  0  0  0  0  0  0  0  0  0  0  0
    2.2500   -6.4952    0.0000 C   0  0  0  0  0  0  0  0  0  0  0  0
   -0.0000   -2.5981    0.0000 N   0  0  0  0  0  0  0  0  0  0  0  0
    0.7500   -1.2990    0.0000 C   0  0  0  0  0  0  0  0  0  0  0  0
    2.2500   -1.2990    0.0000 O   0  0  0  0  0  0  0  0  0  0  0  0
   -0.0000    0.0000    0.0000 C   0  0  0  0  0  0  0  0  0  0  0  0
   -1.5000    0.0000    0.0000 C   0  0  0  0  0  0  0  0  0  0  0  0
   -0.7500   -1.2990    0.0000 C   0  0  0  0  0  0  0  0  0  0  0  0
    0.7500   -1.2990    0.0000 C   0  0  0  0  0  0  0  0  0  0  0  0
    1.5000   -2.5981    0.0000 N   0  0  0  0  0  0  0  0  0  0  0  0
    0.7500   -3.8971    0.0000 C   0  0  0  0  0  0  0  0  0  0  0  0
   -0.7500   -3.8971    0.0000 O   0  0  0  0  0  0  0  0  0  0  0  0
    1.5000   -5.1962    0.0000 N   0  0  0  0  0  0  0  0  0  0  0  0
    0.7500   -6.4952    0.0000 C   0  0  0  0  0  0  0  0  0  0  0  0
    1.5000   -7.7942    0.0000 C   0  0  0  0  0  0  0  0  0  0  0  0
    0.7500   -9.0933    0.0000 C   0  0  0  0  0  0  0  0  0  0  0  0
   -0.7500   -9.0933    0.0000 C   0  0  0  0  0  0  0  0  0  0  0  0
   -1.5000  -10.3923    0.0000 C   0  0  0  0  0  0  0  0  0  0  0  0
   -0.7500  -11.6913    0.0000 C   0  0  0  0  0  0  0  0  0  0  0  0
    0.7500  -11.6913    0.0000 C   0  0  0  0  0  0  0  0  0  0  0  0
    1.5000  -10.3923    0.0000 C   0  0  0  0  0  0  0  0  0  0  0  0
    3.0000   -5.1962    0.0000 C   0  0  0  0  0  0  0  0  0  0  0  0
    3.7500   -6.4952    0.0000 C   0  0  0  0  0  0  0  0  0  0  0  0
    5.2500   -6.4952    0.0000 C   0  0  0  0  0  0  0  0  0  0  0  0
    6.0000   -7.7942    0.0000 C   0  0  0  0  0  0  0  0  0  0  0  0
    7.5000   -7.7942    0.0000 C   0  0  0  0  0  0  0  0  0  0  0  0
    8.2500   -6.4952    0.0000 C   0  0  0  0  0  0  0  0  0  0  0  0
    7.5000   -5.1962    0.0000 C   0  0  0  0  0  0  0  0  0  0  0  0
    6.0000   -5.1962    0.0000 C   0  0  0  0  0  0  0  0  0  0  0  0
    3.7500   -3.8971    0.0000 C   0  0  0  0  0  0  0  0  0  0  0  0
    3.1639   -2.5163    0.0000 O   0  0  0  0  0  0  0  0  0  0  0  0
    5.2500   -3.8971    0.0000 N   0  0  0  0  0  0  0  0  0  0  0  0
    6.0000   -2.5981    0.0000 C   0  0  0  0  0  0  0  0  0  0  0  0
    7.5000   -2.5981    0.0000 C   0  0  0  0  0  0  0  0  0  0  0  0
    8.2500   -1.2990    0.0000 C   0  0  0  0  0  0  0  0  0  0  0  0
    9.7500   -1.2990    0.0000 C   0  0  0  0  0  0  0  0  0  0  0  0
   10.5000   -0.0000    0.0000 C   0  0  0  0  0  0  0  0  0  0  0  0
    9.7500    1.2990    0.0000 C   0  0  0  0  0  0  0  0  0  0  0  0
    8.2500    1.2990    0.0000 C   0  0  0  0  0  0  0  0  0  0  0  0
    7.5000   -0.0000    0.0000 C   0  0  0  0  0  0  0  0  0  0  0  0
    5.2500   -1.2990    0.0000 C   0  0  0  0  0  0  0  0  0  0  0  0
    3.7500   -1.2990    0.0000 O   0  0  0  0  0  0  0  0  0  0  0  0
    6.0000   -0.0000    0.0000 O   0  0  0  0  0  0  0  0  0  0  0  0
    1.5000    0.0000    0.0000 C   0  0  0  0  0  0  0  0  0  0  0  0
    0.7500    1.2990    0.0000 C   0  0  0  0  0  0  0  0  0  0  0  0
   -0.7500    1.2990    0.0000 C   0  0  0  0  0  0  0  0  0  0  0  0
  1  2  2  0
  2  3  1  0
  2  4  1  0
  4  5  1  0
  5  6  1  0
  6  7  2  0
  7  8  1  0
  8  9  2  0
  9 10  1  0
 10 11  2  0
  4 12  1  0
 12 13  1  0
 13 14  2  0
 13 15  1  0
 15 16  1  0
 16 17  1  0
 17 18  1  0
 18 19  1  0
 19 20  1  0
 20 21  2  0
 20 22  1  0
 22 23  1  0
 23 24  1  0
 24 25  1  0
 25 26  2  0
 26 27  1  0
 27 28  2  0
 28 29  1  0
 29 30  2  0
 22 31  1  0
 31 32  1  0
 32 33  1  0
 33 34  2  0
 34 35  1  0
 35 36  2  0
 36 37  1  0
 37 38  2  0
 31 39  1  0
 39 40  2  0
 39 41  1  0
 41 42  1  0
 42 43  1  0
 43 44  1  0
 44 45  2  0
 45 46  1  0
 46 47  2  0
 47 48  1  0
 48 49  2  0
 42 50  1  0
 50 51  2  0
 50 52  1  0
 18 53  1  0
 53 54  1  0
 54 55  1  0
 11  6  1  0
 54 15  1  0
 55 16  1  0
 30 25  1  0
 38 33  1  0
 49 44  1  0
M  END
>  <Title>  (223) 
idAAPCgen6

$$$$

     RDKit          2D

 23 25  0  0  0  0  0  0  0  0999 V2000
    2.2500   -1.2990    0.0000 C   0  0  0  0  0  0  0  0  0  0  0  0
    0.7500   -1.2990    0.0000 C   0  0  0  0  0  0  0  0  0  0  0  0
    1.5000    0.0000    0.0000 C   0  0  0  0  0  0  0  0  0  0  0  0
    0.7500    1.2990    0.0000 C   0  0  0  0  0  0  0  0  0  0  0  0
   -0.7500    1.2990    0.0000 C   0  0  0  0  0  0  0  0  0  0  0  0
   -1.5000    0.0000    0.0000 C   0  0  0  0  0  0  0  0  0  0  0  0
   -2.6491   -0.9642    0.0000 C   0  0  0  0  0  0  0  0  0  0  0  0
   -2.6491    0.9642    0.0000 C   0  0  0  0  0  0  0  0  0  0  0  0
   -1.6849    2.1132    0.0000 C   0  0  0  0  0  0  0  0  0  0  0  0
   -3.6132   -0.1849    0.0000 C   0  0  0  0  0  0  0  0  0  0  0  0
   -3.7981    1.9284    0.0000 C   0  0  0  0  0  0  0  0  0  0  0  0
   -0.7500   -1.2990    0.0000 C   0  0  0  0  0  0  0  0  0  0  0  0
   -1.5000   -2.5981    0.0000 C   0  0  0  0  0  0  0  0  0  0  0  0
   -0.7500   -3.8971    0.0000 C   0  0  0  0  0  0  0  0  0  0  0  0
    0.7500   -3.8971    0.0000 C   0  0  0  0  0  0  0  0  0  0  0  0
    1.5000   -2.5981    0.0000 C   0  0  0  0  0  0  0  0  0  0  0  0
    3.0000   -2.5981    0.0000 C   0  0  0  0  0  0  0  0  0  0  0  0
    3.7500   -3.8971    0.0000 C   0  0  0  0  0  0  0  0  0  0  0  0
    5.2500   -3.8971    0.0000 C   0  0  0  0  0  0  0  0  0  0  0  0
    6.1317   -2.6836    0.0000 C   0  0  0  0  0  0  0  0  0  0  0  0
    7.5583   -3.1471    0.0000 C   0  0  0  0  0  0  0  0  0  0  0  0
    7.5583   -4.6471    0.0000 C   0  0  0  0  0  0  0  0  0  0  0  0
    6.1317   -5.1106    0.0000 C   0  0  0  0  0  0  0  0  0  0  0  0
  1  2  1  0
  2  3  1  0
  3  4  1  0
  4  5  1  0
  5  6  1  0
  6  7  1  0
  6  8  1  0
  8  9  1  0
  8 10  1  0
  8 11  1  0
  6 12  1  0
 12 13  1  0
 13 14  1  0
 14 15  1  0
 15 16  1  0
 16 17  1  0
 17 18  1  0
 18 19  1  0
 19 20  1  0
 20 21  1  0
 21 22  1  0
 22 23  1  0
 12  2  1  0
 23 19  1  0
 16  2  1  0
M  END
>  <Title>  (224) 
idAAPDgen6

$$$$

     RDKit          2D

 42 45  0  0  0  0  0  0  0  0999 V2000
    3.4720    2.7846    0.0000 C   0  0  0  0  0  0  0  0  0  0  0  0
    2.7750    1.4564    0.0000 C   0  0  0  0  0  0  0  0  0  0  0  0
    4.2640    1.2756    0.0000 C   0  0  0  0  0  0  0  0  0  0  0  0
    4.8520   -0.1044    0.0000 C   0  0  0  0  0  0  0  0  0  0  0  0
    3.9509   -1.3035    0.0000 C   0  0  0  0  0  0  0  0  0  0  0  0
    4.5388   -2.6835    0.0000 C   0  0  0  0  0  0  0  0  0  0  0  0
    6.0279   -2.8643    0.0000 O   0  0  0  0  0  0  0  0  0  0  0  0
    3.6377   -3.8827    0.0000 C   0  0  0  0  0  0  0  0  0  0  0  0
    2.6691   -2.7373    0.0000 O   0  0  0  0  0  0  0  0  0  0  0  0
    2.3055   -4.5721    0.0000 C   0  0  0  0  0  0  0  0  0  0  0  0
    2.0139   -6.0435    0.0000 C   0  0  0  0  0  0  0  0  0  0  0  0
    2.9825   -7.1888    0.0000 C   0  0  0  0  0  0  0  0  0  0  0  0
    4.4819   -7.1457    0.0000 C   0  0  0  0  0  0  0  0  0  0  0  0
    5.3830   -5.9465    0.0000 C   0  0  0  0  0  0  0  0  0  0  0  0
    6.8544   -6.2381    0.0000 O   0  0  0  0  0  0  0  0  0  0  0  0
    5.0073   -4.4943    0.0000 C   0  0  0  0  0  0  0  0  0  0  0  0
    6.3410   -0.2852    0.0000 C   0  0  0  0  0  0  0  0  0  0  0  0
    7.2422    0.9140    0.0000 O   0  0  0  0  0  0  0  0  0  0  0  0
    6.9290   -1.6651    0.0000 C   0  0  0  0  0  0  0  0  0  0  0  0
    8.4181   -1.8459    0.0000 O   0  0  0  0  0  0  0  0  0  0  0  0
    3.1339    0.0000    0.0000 C   0  0  0  0  0  0  0  0  0  0  0  0
    2.7750   -1.4564    0.0000 C   0  0  0  0  0  0  0  0  0  0  0  0
    1.7803   -2.5792    0.0000 C   0  0  0  0  0  0  0  0  0  0  0  0
    0.3778   -3.1111    0.0000 C   0  0  0  0  0  0  0  0  0  0  0  0
   -1.1113   -2.9303    0.0000 C   0  0  0  0  0  0  0  0  0  0  0  0
   -2.3458   -2.0782    0.0000 C   0  0  0  0  0  0  0  0  0  0  0  0
   -3.0429   -0.7500    0.0000 C   0  0  0  0  0  0  0  0  0  0  0  0
   -3.0429    0.7500    0.0000 C   0  0  0  0  0  0  0  0  0  0  0  0
   -2.3458    2.0782    0.0000 C   0  0  0  0  0  0  0  0  0  0  0  0
   -1.1113    2.9303    0.0000 C   0  0  0  0  0  0  0  0  0  0  0  0
    0.3778    3.1111    0.0000 C   0  0  0  0  0  0  0  0  0  0  0  0
    1.7803    2.5792    0.0000 C   0  0  0  0  0  0  0  0  0  0  0  0
    2.6324    3.8137    0.0000 C   0  0  0  0  0  0  0  0  0  0  0  0
    4.1275    3.6930    0.0000 C   0  0  0  0  0  0  0  0  0  0  0  0
    4.5060    5.1444    0.0000 C   0  0  0  0  0  0  0  0  0  0  0  0
    3.4382    6.1979    0.0000 C   0  0  0  0  0  0  0  0  0  0  0  0
    3.8167    7.6494    0.0000 C   0  0  0  0  0  0  0  0  0  0  0  0
    5.2630    8.0473    0.0000 C   0  0  0  0  0  0  0  0  0  0  0  0
    6.3307    6.9938    0.0000 C   0  0  0  0  0  0  0  0  0  0  0  0
    5.9523    5.5424    0.0000 C   0  0  0  0  0  0  0  0  0  0  0  0
    5.4912    3.0682    0.0000 C   0  0  0  0  0  0  0  0  0  0  0  0
    4.2683    2.1996    0.0000 C   0  0  0  0  0  0  0  0  0  0  0  0
  1  2  1  0
  2  3  1  0
  3  4  1  0
  4  5  1  0
  5  6  1  0
  6  7  1  0
  6  8  1  0
  8  9  1  0
  8 10  1  0
 10 11  1  0
 11 12  1  0
 12 13  1  0
 13 14  1  0
 14 15  1  0
 14 16  1  0
  4 17  1  0
 17 18  1  0
 17 19  1  0
 19 20  1  0
  2 21  1  0
 21 22  1  0
 22 23  1  0
 23 24  1  0
 24 25  1  0
 25 26  1  0
 26 27  1  0
 27 28  1  0
 28 29  1  0
 29 30  1  0
 30 31  1  0
 31 32  1  0
 32 33  1  0
 33 34  1  0
 34 35  1  0
 35 36  2  0
 36 37  1  0
 37 38  2  0
 38 39  1  0
 39 40  2  0
 34 41  1  0
 41 42  1  0
 32  2  1  0
 42 34  1  0
 16  8  1  0
 40 35  1  0
M  END
>  <Title>  (225) 
idAAPEgen6

$$$$

     RDKit          2D

 55 60  0  0  0  0  0  0  0  0999 V2000
    0.4147   -7.1457    0.0000 O   0  0  0  0  0  0  0  0  0  0  0  0
    1.8636   -7.5339    0.0000 C   0  0  0  0  0  0  0  0  0  0  0  0
    2.9242   -6.4733    0.0000 O   0  0  0  0  0  0  0  0  0  0  0  0
    2.2518   -8.9828    0.0000 C   0  0  0  0  0  0  0  0  0  0  0  0
    3.7007   -9.3711    0.0000 C   0  0  0  0  0  0  0  0  0  0  0  0
    4.7614   -8.3104    0.0000 C   0  0  0  0  0  0  0  0  0  0  0  0
    6.2102   -8.6986    0.0000 C   0  0  0  0  0  0  0  0  0  0  0  0
    7.2709   -7.6380    0.0000 C   0  0  0  0  0  0  0  0  0  0  0  0
    6.8827   -6.1891    0.0000 C   0  0  0  0  0  0  0  0  0  0  0  0
    5.4338   -5.8008    0.0000 C   0  0  0  0  0  0  0  0  0  0  0  0
    4.3731   -6.8615    0.0000 C   0  0  0  0  0  0  0  0  0  0  0  0
    1.1911  -10.0435    0.0000 N   0  0  0  0  0  0  0  0  0  0  0  0
   -0.2577   -9.6553    0.0000 C   0  0  0  0  0  0  0  0  0  0  0  0
   -0.6460   -8.2064    0.0000 O   0  0  0  0  0  0  0  0  0  0  0  0
   -1.3184  -10.7159    0.0000 C   0  0  0  0  0  0  0  0  0  0  0  0
   -0.9302  -12.1648    0.0000 C   0  0  0  0  0  0  0  0  0  0  0  0
    0.5187  -12.5530    0.0000 C   0  0  0  0  0  0  0  0  0  0  0  0
    0.9069  -14.0019    0.0000 C   0  0  0  0  0  0  0  0  0  0  0  0
    2.3558  -14.3901    0.0000 C   0  0  0  0  0  0  0  0  0  0  0  0
    3.4165  -13.3295    0.0000 C   0  0  0  0  0  0  0  0  0  0  0  0
    3.0283  -11.8806    0.0000 C   0  0  0  0  0  0  0  0  0  0  0  0
    1.5794  -11.4924    0.0000 C   0  0  0  0  0  0  0  0  0  0  0  0
   -2.7673  -10.3277    0.0000 N   0  0  0  0  0  0  0  0  0  0  0  0
   -3.1555   -8.8788    0.0000 C   0  0  0  0  0  0  0  0  0  0  0  0
   -2.0949   -7.8181    0.0000 O   0  0  0  0  0  0  0  0  0  0  0  0
   -4.6044   -8.4906    0.0000 C   0  0  0  0  0  0  0  0  0  0  0  0
   -5.6651   -9.5512    0.0000 C   0  0  0  0  0  0  0  0  0  0  0  0
   -5.2768  -11.0001    0.0000 C   0  0  0  0  0  0  0  0  0  0  0  0
   -6.3375  -12.0608    0.0000 C   0  0  0  0  0  0  0  0  0  0  0  0
   -5.9493  -13.5097    0.0000 C   0  0  0  0  0  0  0  0  0  0  0  0
   -4.5004  -13.8979    0.0000 C   0  0  0  0  0  0  0  0  0  0  0  0
   -3.4397  -12.8372    0.0000 C   0  0  0  0  0  0  0  0  0  0  0  0
   -3.8280  -11.3883    0.0000 C   0  0  0  0  0  0  0  0  0  0  0  0
   -4.9926   -7.0417    0.0000 N   0  0  0  0  0  0  0  0  0  0  0  0
   -3.9320   -5.9810    0.0000 C   0  0  0  0  0  0  0  0  0  0  0  0
   -2.4831   -6.3692    0.0000 O   0  0  0  0  0  0  0  0  0  0  0  0
   -4.3202   -4.5321    0.0000 C   0  0  0  0  0  0  0  0  0  0  0  0
   -5.7691   -4.1439    0.0000 C   0  0  0  0  0  0  0  0  0  0  0  0
   -6.8298   -5.2046    0.0000 C   0  0  0  0  0  0  0  0  0  0  0  0
   -8.2786   -4.8163    0.0000 C   0  0  0  0  0  0  0  0  0  0  0  0
   -9.3393   -5.8770    0.0000 C   0  0  0  0  0  0  0  0  0  0  0  0
   -8.9511   -7.3259    0.0000 C   0  0  0  0  0  0  0  0  0  0  0  0
   -7.5022   -7.7141    0.0000 C   0  0  0  0  0  0  0  0  0  0  0  0
   -6.4415   -6.6535    0.0000 C   0  0  0  0  0  0  0  0  0  0  0  0
   -3.2595   -3.4715    0.0000 C   0  0  0  0  0  0  0  0  0  0  0  0
   -3.6478   -2.0226    0.0000 O   0  0  0  0  0  0  0  0  0  0  0  0
   -1.8107   -3.8597    0.0000 N   0  0  0  0  0  0  0  0  0  0  0  0
   -0.7500   -2.7990    0.0000 C   0  0  0  0  0  0  0  0  0  0  0  0
    0.7500   -2.7990    0.0000 C   0  0  0  0  0  0  0  0  0  0  0  0
    0.7500   -1.2990    0.0000 C   0  0  0  0  0  0  0  0  0  0  0  0
    1.5000    0.0000    0.0000 C   0  0  0  0  0  0  0  0  0  0  0  0
    0.7500    1.2990    0.0000 C   0  0  0  0  0  0  0  0  0  0  0  0
   -0.7500    1.2990    0.0000 C   0  0  0  0  0  0  0  0  0  0  0  0
   -1.5000    0.0000    0.0000 C   0  0  0  0  0  0  0  0  0  0  0  0
   -0.7500   -1.2990    0.0000 C   0  0  0  0  0  0  0  0  0  0  0  0
  1  2  2  0
  2  3  1  0
  2  4  1  0
  4  5  1  0
  5  6  1  0
  6  7  2  0
  7  8  1  0
  8  9  2  0
  9 10  1  0
 10 11  2  0
  4 12  1  0
 12 13  1  0
 13 14  2  0
 13 15  1  0
 15 16  1  0
 16 17  1  0
 17 18  2  0
 18 19  1  0
 19 20  2  0
 20 21  1  0
 21 22  2  0
 15 23  1  0
 23 24  1  0
 24 25  2  0
 24 26  1  0
 26 27  1  0
 27 28  1  0
 28 29  2  0
 29 30  1  0
 30 31  2  0
 31 32  1  0
 32 33  2  0
 26 34  1  0
 34 35  1  0
 35 36  2  0
 35 37  1  0
 37 38  1  0
 38 39  1  0
 39 40  2  0
 40 41  1  0
 41 42  2  0
 42 43  1  0
 43 44  2  0
 37 45  1  0
 45 46  2  0
 45 47  1  0
 47 48  1  0
 48 49  1  0
 49 50  1  0
 50 51  1  0
 51 52  1  0
 52 53  1  0
 53 54  1  0
 54 55  1  0
 11  6  1  0
 22 17  1  0
 33 28  1  0
 44 39  1  0
 55 48  1  0
 55 50  1  0
M  END
>  <Title>  (226) 
idAAPFgen6

$$$$

     RDKit          2D

 57 62  0  0  0  0  0  0  0  0999 V2000
    7.4554   -4.8332    0.0000 N   0  0  0  0  0  0  0  0  0  0  0  0
    6.0000   -5.1962    0.0000 C   0  0  0  0  0  0  0  0  0  0  0  0
    5.5866   -3.7542    0.0000 O   0  0  0  0  0  0  0  0  0  0  0  0
    5.2500   -6.4952    0.0000 C   0  0  0  0  0  0  0  0  0  0  0  0
    6.0000   -7.7942    0.0000 C   0  0  0  0  0  0  0  0  0  0  0  0
    7.5000   -7.7942    0.0000 C   0  0  0  0  0  0  0  0  0  0  0  0
    8.2500   -9.0933    0.0000 C   0  0  0  0  0  0  0  0  0  0  0  0
    9.7500   -9.0933    0.0000 C   0  0  0  0  0  0  0  0  0  0  0  0
   10.5000   -7.7942    0.0000 C   0  0  0  0  0  0  0  0  0  0  0  0
    9.7500   -6.4952    0.0000 C   0  0  0  0  0  0  0  0  0  0  0  0
    8.2500   -6.4952    0.0000 C   0  0  0  0  0  0  0  0  0  0  0  0
    3.7500   -6.4952    0.0000 N   0  0  0  0  0  0  0  0  0  0  0  0
    3.0000   -5.1962    0.0000 C   0  0  0  0  0  0  0  0  0  0  0  0
    3.7500   -3.8971    0.0000 O   0  0  0  0  0  0  0  0  0  0  0  0
    1.5000   -5.1962    0.0000 C   0  0  0  0  0  0  0  0  0  0  0  0
    0.7500   -6.4952    0.0000 C   0  0  0  0  0  0  0  0  0  0  0  0
    1.5000   -7.7942    0.0000 C   0  0  0  0  0  0  0  0  0  0  0  0
    0.7500   -9.0933    0.0000 C   0  0  0  0  0  0  0  0  0  0  0  0
    1.5000  -10.3923    0.0000 C   0  0  0  0  0  0  0  0  0  0  0  0
    3.0000  -10.3923    0.0000 C   0  0  0  0  0  0  0  0  0  0  0  0
    3.7500   -9.0933    0.0000 C   0  0  0  0  0  0  0  0  0  0  0  0
    3.0000   -7.7942    0.0000 C   0  0  0  0  0  0  0  0  0  0  0  0
    0.7500   -3.8971    0.0000 C   0  0  0  0  0  0  0  0  0  0  0  0
   -0.7500   -3.8971    0.0000 O   0  0  0  0  0  0  0  0  0  0  0  0
    1.5000   -2.5981    0.0000 N   0  0  0  0  0  0  0  0  0  0  0  0
    0.7500   -1.2990    0.0000 C   0  0  0  0  0  0  0  0  0  0  0  0
    1.5000    0.0000    0.0000 C   0  0  0  0  0  0  0  0  0  0  0  0
    0.7500    1.2990    0.0000 C   0  0  0  0  0  0  0  0  0  0  0  0
   -0.7500    1.2990    0.0000 C   0  0  0  0  0  0  0  0  0  0  0  0
   -1.5000    0.0000    0.0000 C   0  0  0  0  0  0  0  0  0  0  0  0
   -0.7500   -1.2990    0.0000 C   0  0  0  0  0  0  0  0  0  0  0  0
   -0.0000   -0.0000    0.0000 C   0  0  0  0  0  0  0  0  0  0  0  0
    0.7500   -1.2990    0.0000 C   0  0  0  0  0  0  0  0  0  0  0  0
    2.2500   -1.2990    0.0000 O   0  0  0  0  0  0  0  0  0  0  0  0
   -0.0000   -2.5981    0.0000 N   0  0  0  0  0  0  0  0  0  0  0  0
    0.7500   -3.8971    0.0000 C   0  0  0  0  0  0  0  0  0  0  0  0
   -0.0000   -5.1962    0.0000 C   0  0  0  0  0  0  0  0  0  0  0  0
    0.7500   -6.4952    0.0000 C   0  0  0  0  0  0  0  0  0  0  0  0
   -0.0000   -7.7942    0.0000 C   0  0  0  0  0  0  0  0  0  0  0  0
    0.7500   -9.0933    0.0000 C   0  0  0  0  0  0  0  0  0  0  0  0
    2.2500   -9.0933    0.0000 C   0  0  0  0  0  0  0  0  0  0  0  0
    3.0000   -7.7942    0.0000 C   0  0  0  0  0  0  0  0  0  0  0  0
    2.2500   -6.4952    0.0000 C   0  0  0  0  0  0  0  0  0  0  0  0
    2.2500   -3.8971    0.0000 C   0  0  0  0  0  0  0  0  0  0  0  0
    3.0000   -2.5981    0.0000 O   0  0  0  0  0  0  0  0  0  0  0  0
    3.0000   -5.1962    0.0000 N   0  0  0  0  0  0  0  0  0  0  0  0
    4.5000   -5.1962    0.0000 C   0  0  0  0  0  0  0  0  0  0  0  0
    5.2500   -6.4952    0.0000 C   0  0  0  0  0  0  0  0  0  0  0  0
    6.7500   -6.4952    0.0000 C   0  0  0  0  0  0  0  0  0  0  0  0
    7.5000   -7.7942    0.0000 C   0  0  0  0  0  0  0  0  0  0  0  0
    9.0000   -7.7942    0.0000 C   0  0  0  0  0  0  0  0  0  0  0  0
    9.7500   -6.4952    0.0000 C   0  0  0  0  0  0  0  0  0  0  0  0
    9.0000   -5.1962    0.0000 C   0  0  0  0  0  0  0  0  0  0  0  0
    7.5000   -5.1962    0.0000 C   0  0  0  0  0  0  0  0  0  0  0  0
    5.2500   -3.8971    0.0000 C   0  0  0  0  0  0  0  0  0  0  0  0
    4.5000   -2.5981    0.0000 O   0  0  0  0  0  0  0  0  0  0  0  0
    6.7500   -3.8971    0.0000 O   0  0  0  0  0  0  0  0  0  0  0  0
  1  2  1  0
  2  3  2  0
  2  4  1  0
  4  5  1  0
  5  6  1  0
  6  7  2  0
  7  8  1  0
  8  9  2  0
  9 10  1  0
 10 11  2  0
  4 12  1  0
 12 13  1  0
 13 14  2  0
 13 15  1  0
 15 16  1  0
 16 17  1  0
 17 18  2  0
 18 19  1  0
 19 20  2  0
 20 21  1  0
 21 22  2  0
 15 23  1  0
 23 24  2  0
 23 25  1  0
 25 26  1  0
 26 27  1  0
 27 28  1  0
 28 29  1  0
 29 30  1  0
 30 31  1  0
 30 32  1  0
 32 33  1  0
 33 34  2  0
 33 35  1  0
 35 36  1  0
 36 37  1  0
 37 38  1  0
 38 39  2  0
 39 40  1  0
 40 41  2  0
 41 42  1  0
 42 43  2  0
 36 44  1  0
 44 45  2  0
 44 46  1  0
 46 47  1  0
 47 48  1  0
 48 49  1  0
 49 50  2  0
 50 51  1  0
 51 52  2  0
 52 53  1  0
 53 54  2  0
 47 55  1  0
 55 56  2  0
 55 57  1  0
 11  6  1  0
 22 17  1  0
 31 26  1  0
 43 38  1  0
 54 49  1  0
 32 28  1  0
M  END
>  <Title>  (227) 
idAAPGgen6

$$$$

     RDKit          2D

 69 76  0  0  0  0  0  0  0  0999 V2000
   -5.4739    0.1970    0.0000 C   0  0  0  0  0  0  0  0  0  0  0  0
   -6.7212    1.0303    0.0000 C   0  0  0  0  0  0  0  0  0  0  0  0
   -6.6943   -0.4695    0.0000 C   0  0  0  0  0  0  0  0  0  0  0  0
   -7.9797   -1.2426    0.0000 C   0  0  0  0  0  0  0  0  0  0  0  0
   -7.9529   -2.7424    0.0000 C   0  0  0  0  0  0  0  0  0  0  0  0
   -9.2383   -3.5155    0.0000 C   0  0  0  0  0  0  0  0  0  0  0  0
  -10.5505   -2.7889    0.0000 O   0  0  0  0  0  0  0  0  0  0  0  0
   -9.2114   -5.0153    0.0000 C   0  0  0  0  0  0  0  0  0  0  0  0
   -7.7227   -4.8318    0.0000 O   0  0  0  0  0  0  0  0  0  0  0  0
   -8.8734   -6.4767    0.0000 C   0  0  0  0  0  0  0  0  0  0  0  0
  -10.1588   -7.2498    0.0000 C   0  0  0  0  0  0  0  0  0  0  0  0
  -11.2913   -6.2662    0.0000 C   0  0  0  0  0  0  0  0  0  0  0  0
  -10.7058   -4.8852    0.0000 C   0  0  0  0  0  0  0  0  0  0  0  0
   -9.2920   -0.5160    0.0000 C   0  0  0  0  0  0  0  0  0  0  0  0
   -9.4987    0.2539    0.0000 O   0  0  0  0  0  0  0  0  0  0  0  0
  -10.5774   -1.2891    0.0000 C   0  0  0  0  0  0  0  0  0  0  0  0
  -11.8896   -0.5625    0.0000 O   0  0  0  0  0  0  0  0  0  0  0  0
   -8.1139    0.4733    0.0000 C   0  0  0  0  0  0  0  0  0  0  0  0
   -9.6060    0.6275    0.0000 C   0  0  0  0  0  0  0  0  0  0  0  0
  -10.8555    1.4573    0.0000 C   0  0  0  0  0  0  0  0  0  0  0  0
  -11.5763    2.7728    0.0000 C   0  0  0  0  0  0  0  0  0  0  0  0
  -11.6031    4.2726    0.0000 C   0  0  0  0  0  0  0  0  0  0  0  0
  -10.9299    5.6130    0.0000 C   0  0  0  0  0  0  0  0  0  0  0  0
   -9.7109    6.4871    0.0000 C   0  0  0  0  0  0  0  0  0  0  0  0
   -8.2253    6.6945    0.0000 C   0  0  0  0  0  0  0  0  0  0  0  0
   -6.8135    6.1878    0.0000 C   0  0  0  0  0  0  0  0  0  0  0  0
   -5.7989    5.0830    0.0000 C   0  0  0  0  0  0  0  0  0  0  0  0
   -5.4139    3.6333    0.0000 C   0  0  0  0  0  0  0  0  0  0  0  0
   -5.7467    2.1707    0.0000 C   0  0  0  0  0  0  0  0  0  0  0  0
   -4.4063    1.4975    0.0000 C   0  0  0  0  0  0  0  0  0  0  0  0
   -4.3191    0.0000    0.0000 C   0  0  0  0  0  0  0  0  0  0  0  0
   -5.7786    0.3459    0.0000 C   0  0  0  0  0  0  0  0  0  0  0  0
   -5.7962    1.8458    0.0000 C   0  0  0  0  0  0  0  0  0  0  0  0
   -6.1246   -1.1136    0.0000 C   0  0  0  0  0  0  0  0  0  0  0  0
   -7.2785    0.3284    0.0000 C   0  0  0  0  0  0  0  0  0  0  0  0
   -5.0691   -1.2990    0.0000 C   0  0  0  0  0  0  0  0  0  0  0  0
   -4.8086   -2.7762    0.0000 C   0  0  0  0  0  0  0  0  0  0  0  0
   -6.1076   -3.5262    0.0000 O   0  0  0  0  0  0  0  0  0  0  0  0
   -3.6595   -3.7404    0.0000 C   0  0  0  0  0  0  0  0  0  0  0  0
   -2.1595   -3.7404    0.0000 C   0  0  0  0  0  0  0  0  0  0  0  0
   -1.0105   -2.7762    0.0000 C   0  0  0  0  0  0  0  0  0  0  0  0
   -0.7500   -1.2990    0.0000 C   0  0  0  0  0  0  0  0  0  0  0  0
    0.2142   -2.4481    0.0000 C   0  0  0  0  0  0  0  0  0  0  0  0
    0.7500   -1.2990    0.0000 C   0  0  0  0  0  0  0  0  0  0  0  0
    1.5000   -2.5981    0.0000 C   0  0  0  0  0  0  0  0  0  0  0  0
    3.0000   -2.5981    0.0000 C   0  0  0  0  0  0  0  0  0  0  0  0
    3.7500   -3.8971    0.0000 C   0  0  0  0  0  0  0  0  0  0  0  0
    5.2418   -4.0539    0.0000 C   0  0  0  0  0  0  0  0  0  0  0  0
    5.5537   -5.5211    0.0000 C   0  0  0  0  0  0  0  0  0  0  0  0
    4.2546   -6.2711    0.0000 C   0  0  0  0  0  0  0  0  0  0  0  0
    3.1399   -5.2674    0.0000 C   0  0  0  0  0  0  0  0  0  0  0  0
    1.5000    0.0000    0.0000 C   0  0  0  0  0  0  0  0  0  0  0  0
    0.7500    1.2990    0.0000 C   0  0  0  0  0  0  0  0  0  0  0  0
   -0.7500    1.2990    0.0000 C   0  0  0  0  0  0  0  0  0  0  0  0
   -1.5000    0.0000    0.0000 C   0  0  0  0  0  0  0  0  0  0  0  0
   -2.0130    1.4095    0.0000 C   0  0  0  0  0  0  0  0  0  0  0  0
   -2.9095    0.5130    0.0000 C   0  0  0  0  0  0  0  0  0  0  0  0
   -2.9095    2.0130    0.0000 C   0  0  0  0  0  0  0  0  0  0  0  0
   -4.2086    2.7630    0.0000 C   0  0  0  0  0  0  0  0  0  0  0  0
   -4.2086    4.2630    0.0000 C   0  0  0  0  0  0  0  0  0  0  0  0
   -2.9095    5.0130    0.0000 C   0  0  0  0  0  0  0  0  0  0  0  0
   -2.9095    6.5130    0.0000 C   0  0  0  0  0  0  0  0  0  0  0  0
   -4.2086    7.2630    0.0000 C   0  0  0  0  0  0  0  0  0  0  0  0
   -5.5076    6.5130    0.0000 C   0  0  0  0  0  0  0  0  0  0  0  0
   -3.1105    4.2630    0.0000 C   0  0  0  0  0  0  0  0  0  0  0  0
   -1.6105    4.2630    0.0000 C   0  0  0  0  0  0  0  0  0  0  0  0
   -1.6105    5.7630    0.0000 C   0  0  0  0  0  0  0  0  0  0  0  0
   -2.9095    3.5130    0.0000 C   0  0  0  0  0  0  0  0  0  0  0  0
   -5.5076    5.0130    0.0000 C   0  0  0  0  0  0  0  0  0  0  0  0
  1  2  1  0
  2  3  1  0
  3  4  1  0
  4  5  1  0
  5  6  1  0
  6  7  1  0
  6  8  1  0
  8  9  1  0
  8 10  1  0
 10 11  1  0
 11 12  1  0
 12 13  1  0
  4 14  1  0
 14 15  1  0
 14 16  1  0
 16 17  1  0
  2 18  1  0
 18 19  1  0
 19 20  1  0
 20 21  1  0
 21 22  1  0
 22 23  1  0
 23 24  1  0
 24 25  1  0
 25 26  1  0
 26 27  1  0
 27 28  1  0
 28 29  1  0
 29 30  1  0
 30 31  1  0
 31 32  1  0
 32 33  1  0
 32 34  1  0
 32 35  1  0
 31 36  1  0
 36 37  1  0
 37 38  1  0
 37 39  1  0
 39 40  1  0
 40 41  1  0
 41 42  1  0
 42 43  1  0
 42 44  1  0
 44 45  1  0
 45 46  1  0
 46 47  1  0
 47 48  1  0
 48 49  1  0
 49 50  1  0
 50 51  1  0
 44 52  1  0
 52 53  1  0
 53 54  1  0
 54 55  1  0
 55 56  1  0
 55 57  1  0
 57 58  1  0
 58 59  1  0
 59 60  1  0
 60 61  1  0
 61 62  1  0
 62 63  1  0
 63 64  1  0
 64 65  1  0
 65 66  1  0
 66 67  1  0
 66 68  1  0
 64 69  1  0
 29  2  1  0
 57 31  1  0
 68 60  1  0
 13  8  1  0
 55 42  1  0
 69 60  1  0
 51 47  1  0
 67 62  1  0
M  END
>  <Title>  (228) 
idAAPHgen6

$$$$

     RDKit          2D

 63 70  0  0  0  0  0  0  0  0999 V2000
    1.4650    3.9205    0.0000 O   0  0  0  0  0  0  0  0  0  0  0  0
    2.0130    2.5242    0.0000 C   0  0  0  0  0  0  0  0  0  0  0  0
    3.4962    2.3006    0.0000 N   0  0  0  0  0  0  0  0  0  0  0  0
    4.4315    3.4734    0.0000 C   0  0  0  0  0  0  0  0  0  0  0  0
    5.9147    3.2498    0.0000 C   0  0  0  0  0  0  0  0  0  0  0  0
    6.8499    4.4226    0.0000 C   0  0  0  0  0  0  0  0  0  0  0  0
    7.3770    5.8269    0.0000 C   0  0  0  0  0  0  0  0  0  0  0  0
    6.2043    6.7622    0.0000 C   0  0  0  0  0  0  0  0  0  0  0  0
    4.9524    5.9358    0.0000 C   0  0  0  0  0  0  0  0  0  0  0  0
    3.8835    4.8697    0.0000 C   0  0  0  0  0  0  0  0  0  0  0  0
    5.3515    4.4899    0.0000 N   0  0  0  0  0  0  0  0  0  0  0  0
    4.4162    3.3171    0.0000 C   0  0  0  0  0  0  0  0  0  0  0  0
    4.9642    1.9208    0.0000 C   0  0  0  0  0  0  0  0  0  0  0  0
    4.0290    0.7481    0.0000 C   0  0  0  0  0  0  0  0  0  0  0  0
    2.5458    0.9716    0.0000 C   0  0  0  0  0  0  0  0  0  0  0  0
    1.6105   -0.2011    0.0000 C   0  0  0  0  0  0  0  0  0  0  0  0
    2.1585   -1.5974    0.0000 C   0  0  0  0  0  0  0  0  0  0  0  0
    3.6418   -1.8210    0.0000 C   0  0  0  0  0  0  0  0  0  0  0  0
    4.5770   -0.6483    0.0000 C   0  0  0  0  0  0  0  0  0  0  0  0
    1.0777    1.3515    0.0000 C   0  0  0  0  0  0  0  0  0  0  0  0
    1.7286    0.0000    0.0000 C   0  0  0  0  0  0  0  0  0  0  0  0
    1.0777   -1.3515    0.0000 O   0  0  0  0  0  0  0  0  0  0  0  0
   -0.3846   -1.6852    0.0000 C   0  0  0  0  0  0  0  0  0  0  0  0
   -1.5574   -0.7500    0.0000 C   0  0  0  0  0  0  0  0  0  0  0  0
   -1.5574    0.7500    0.0000 C   0  0  0  0  0  0  0  0  0  0  0  0
   -0.3846    1.6852    0.0000 C   0  0  0  0  0  0  0  0  0  0  0  0
   -0.3846   -0.1852    0.0000 C   0  0  0  0  0  0  0  0  0  0  0  0
    0.9668    0.4656    0.0000 C   0  0  0  0  0  0  0  0  0  0  0  0
    1.4375    1.8898    0.0000 O   0  0  0  0  0  0  0  0  0  0  0  0
    2.2062   -0.3794    0.0000 N   0  0  0  0  0  0  0  0  0  0  0  0
    3.5576    0.2714    0.0000 C   0  0  0  0  0  0  0  0  0  0  0  0
    4.7970   -0.5735    0.0000 C   0  0  0  0  0  0  0  0  0  0  0  0
    6.1484    0.0773    0.0000 C   0  0  0  0  0  0  0  0  0  0  0  0
    7.3878   -0.7677    0.0000 C   0  0  0  0  0  0  0  0  0  0  0  0
    8.7392   -0.1169    0.0000 C   0  0  0  0  0  0  0  0  0  0  0  0
    8.8513    1.3789    0.0000 C   0  0  0  0  0  0  0  0  0  0  0  0
    7.6120    2.2239    0.0000 C   0  0  0  0  0  0  0  0  0  0  0  0
    6.2605    1.5731    0.0000 C   0  0  0  0  0  0  0  0  0  0  0  0
    3.6697    1.7672    0.0000 C   0  0  0  0  0  0  0  0  0  0  0  0
    2.6717    2.8870    0.0000 O   0  0  0  0  0  0  0  0  0  0  0  0
    5.0212    2.4181    0.0000 N   0  0  0  0  0  0  0  0  0  0  0  0
    5.1333    3.9139    0.0000 C   0  0  0  0  0  0  0  0  0  0  0  0
    6.4847    4.5647    0.0000 C   0  0  0  0  0  0  0  0  0  0  0  0
    6.5968    6.0605    0.0000 C   0  0  0  0  0  0  0  0  0  0  0  0
    7.9483    6.7113    0.0000 C   0  0  0  0  0  0  0  0  0  0  0  0
    8.0604    8.2071    0.0000 C   0  0  0  0  0  0  0  0  0  0  0  0
    6.8210    9.0521    0.0000 C   0  0  0  0  0  0  0  0  0  0  0  0
    5.4696    8.4013    0.0000 C   0  0  0  0  0  0  0  0  0  0  0  0
    5.3575    6.9055    0.0000 C   0  0  0  0  0  0  0  0  0  0  0  0
    3.8939    4.7589    0.0000 C   0  0  0  0  0  0  0  0  0  0  0  0
    2.5425    4.1080    0.0000 O   0  0  0  0  0  0  0  0  0  0  0  0
    4.0060    6.2547    0.0000 N   0  0  0  0  0  0  0  0  0  0  0  0
    2.7666    7.0996    0.0000 C   0  0  0  0  0  0  0  0  0  0  0  0
    2.8787    8.5954    0.0000 C   0  0  0  0  0  0  0  0  0  0  0  0
    1.6394    9.4404    0.0000 C   0  0  0  0  0  0  0  0  0  0  0  0
    1.7515   10.9362    0.0000 C   0  0  0  0  0  0  0  0  0  0  0  0
    0.5121   11.7812    0.0000 C   0  0  0  0  0  0  0  0  0  0  0  0
   -0.8393   11.1304    0.0000 C   0  0  0  0  0  0  0  0  0  0  0  0
   -0.9514    9.6346    0.0000 C   0  0  0  0  0  0  0  0  0  0  0  0
    0.2879    8.7896    0.0000 C   0  0  0  0  0  0  0  0  0  0  0  0
    1.4152    6.4488    0.0000 C   0  0  0  0  0  0  0  0  0  0  0  0
    1.3031    4.9530    0.0000 O   0  0  0  0  0  0  0  0  0  0  0  0
    0.1758    7.2938    0.0000 O   0  0  0  0  0  0  0  0  0  0  0  0
  1  2  2  0
  2  3  1  0
  3  4  1  0
  4  5  1  0
  5  6  1  0
  6  7  1  0
  7  8  1  0
  8  9  1  0
  9 10  1  0
  9 11  1  0
 11 12  1  0
 12 13  1  0
 13 14  1  0
 14 15  2  0
 15 16  1  0
 16 17  2  0
 17 18  1  0
 18 19  2  0
  2 20  1  0
 20 21  1  0
 21 22  1  0
 22 23  1  0
 23 24  1  0
 24 25  1  0
 25 26  1  0
 25 27  1  0
 27 28  1  0
 28 29  2  0
 28 30  1  0
 30 31  1  0
 31 32  1  0
 32 33  1  0
 33 34  2  0
 34 35  1  0
 35 36  2  0
 36 37  1  0
 37 38  2  0
 31 39  1  0
 39 40  2  0
 39 41  1  0
 41 42  1  0
 42 43  1  0
 43 44  1  0
 44 45  2  0
 45 46  1  0
 46 47  2  0
 47 48  1  0
 48 49  2  0
 42 50  1  0
 50 51  2  0
 50 52  1  0
 52 53  1  0
 53 54  1  0
 54 55  1  0
 55 56  2  0
 56 57  1  0
 57 58  2  0
 58 59  1  0
 59 60  2  0
 53 61  1  0
 61 62  2  0
 61 63  1  0
 10  4  1  0
 19 14  1  0
 26 20  1  0
 38 33  1  0
 49 44  1  0
 60 55  1  0
 11  6  1  0
 27 23  1  0
M  END
>  <Title>  (229) 
idAAPIgen6

$$$$

     RDKit          2D

 16 17  0  0  0  0  0  0  0  0999 V2000
   -2.1513    4.1941    0.0000 C   0  0  0  0  0  0  0  0  0  0  0  0
   -2.8323    2.8576    0.0000 C   0  0  0  0  0  0  0  0  0  0  0  0
   -3.5133    1.5211    0.0000 C   0  0  0  0  0  0  0  0  0  0  0  0
   -4.1688    3.5386    0.0000 C   0  0  0  0  0  0  0  0  0  0  0  0
   -1.4958    2.1766    0.0000 C   0  0  0  0  0  0  0  0  0  0  0  0
   -0.0692    2.6401    0.0000 C   0  0  0  0  0  0  0  0  0  0  0  0
    0.3943    1.2135    0.0000 C   0  0  0  0  0  0  0  0  0  0  0  0
    1.7308    1.8945    0.0000 C   0  0  0  0  0  0  0  0  0  0  0  0
    2.4118    0.5580    0.0000 C   0  0  0  0  0  0  0  0  0  0  0  0
    1.0498    3.2310    0.0000 C   0  0  0  0  0  0  0  0  0  0  0  0
    3.0673    2.5755    0.0000 C   0  0  0  0  0  0  0  0  0  0  0  0
    1.2760    0.0000    0.0000 C   0  0  0  0  0  0  0  0  0  0  0  0
    0.3943   -1.2135    0.0000 C   0  0  0  0  0  0  0  0  0  0  0  0
   -1.0323   -0.7500    0.0000 C   0  0  0  0  0  0  0  0  0  0  0  0
   -1.0323    0.7500    0.0000 C   0  0  0  0  0  0  0  0  0  0  0  0
   -2.5138    0.5153    0.0000 C   0  0  0  0  0  0  0  0  0  0  0  0
  1  2  1  0
  2  3  1  0
  2  4  1  0
  2  5  1  0
  5  6  1  0
  6  7  1  0
  7  8  1  0
  8  9  1  0
  8 10  1  0
  8 11  1  0
  7 12  1  0
 12 13  1  0
 13 14  1  0
 14 15  1  0
 15 16  1  0
 15  5  1  0
 15  7  1  0
M  END
>  <Title>  (230) 
idAAPJgen6

$$$$

     RDKit          2D

 53 57  0  0  0  0  0  0  0  0999 V2000
    5.5790   -7.7382    0.0000 C   0  0  0  0  0  0  0  0  0  0  0  0
    4.5000   -6.6962    0.0000 C   0  0  0  0  0  0  0  0  0  0  0  0
    4.5000   -5.1962    0.0000 C   0  0  0  0  0  0  0  0  0  0  0  0
    4.5000   -3.6962    0.0000 C   0  0  0  0  0  0  0  0  0  0  0  0
    5.7990   -2.9462    0.0000 C   0  0  0  0  0  0  0  0  0  0  0  0
    6.0000   -5.1962    0.0000 C   0  0  0  0  0  0  0  0  0  0  0  0
    6.7500   -3.8971    0.0000 C   0  0  0  0  0  0  0  0  0  0  0  0
    3.0000   -5.1962    0.0000 C   0  0  0  0  0  0  0  0  0  0  0  0
    2.2500   -3.8971    0.0000 C   0  0  0  0  0  0  0  0  0  0  0  0
    3.0000   -2.5981    0.0000 O   0  0  0  0  0  0  0  0  0  0  0  0
    0.7500   -3.8971    0.0000 C   0  0  0  0  0  0  0  0  0  0  0  0
   -0.0000   -5.1962    0.0000 C   0  0  0  0  0  0  0  0  0  0  0  0
    0.7500   -6.4952    0.0000 C   0  0  0  0  0  0  0  0  0  0  0  0
   -0.0000   -7.7942    0.0000 C   0  0  0  0  0  0  0  0  0  0  0  0
    0.7500   -9.0933    0.0000 C   0  0  0  0  0  0  0  0  0  0  0  0
    2.2500   -9.0933    0.0000 C   0  0  0  0  0  0  0  0  0  0  0  0
    3.0000   -7.7942    0.0000 C   0  0  0  0  0  0  0  0  0  0  0  0
    2.2500   -6.4952    0.0000 C   0  0  0  0  0  0  0  0  0  0  0  0
   -0.0000   -2.5981    0.0000 N   0  0  0  0  0  0  0  0  0  0  0  0
    0.7500   -1.2990    0.0000 C   0  0  0  0  0  0  0  0  0  0  0  0
    2.2500   -1.2990    0.0000 O   0  0  0  0  0  0  0  0  0  0  0  0
   -0.0000    0.0000    0.0000 C   0  0  0  0  0  0  0  0  0  0  0  0
   -1.5000    0.0000    0.0000 C   0  0  0  0  0  0  0  0  0  0  0  0
   -0.7500   -1.2990    0.0000 C   0  0  0  0  0  0  0  0  0  0  0  0
    0.7500   -1.2990    0.0000 C   0  0  0  0  0  0  0  0  0  0  0  0
    1.5000   -2.5981    0.0000 N   0  0  0  0  0  0  0  0  0  0  0  0
    0.7500   -3.8971    0.0000 C   0  0  0  0  0  0  0  0  0  0  0  0
   -0.7500   -3.8971    0.0000 O   0  0  0  0  0  0  0  0  0  0  0  0
    1.5000   -5.1962    0.0000 C   0  0  0  0  0  0  0  0  0  0  0  0
    0.7500   -6.4952    0.0000 C   0  0  0  0  0  0  0  0  0  0  0  0
    1.5000   -7.7942    0.0000 C   0  0  0  0  0  0  0  0  0  0  0  0
    0.7500   -9.0933    0.0000 C   0  0  0  0  0  0  0  0  0  0  0  0
    1.5000  -10.3923    0.0000 C   0  0  0  0  0  0  0  0  0  0  0  0
    3.0000  -10.3923    0.0000 C   0  0  0  0  0  0  0  0  0  0  0  0
    3.7500   -9.0933    0.0000 C   0  0  0  0  0  0  0  0  0  0  0  0
    3.0000   -7.7942    0.0000 C   0  0  0  0  0  0  0  0  0  0  0  0
    3.0000   -5.1962    0.0000 C   0  0  0  0  0  0  0  0  0  0  0  0
    3.4134   -3.7542    0.0000 O   0  0  0  0  0  0  0  0  0  0  0  0
    3.7500   -6.4952    0.0000 N   0  0  0  0  0  0  0  0  0  0  0  0
    5.2500   -6.4952    0.0000 C   0  0  0  0  0  0  0  0  0  0  0  0
    6.0000   -7.7942    0.0000 C   0  0  0  0  0  0  0  0  0  0  0  0
    7.5000   -7.7942    0.0000 C   0  0  0  0  0  0  0  0  0  0  0  0
    8.2500   -9.0933    0.0000 C   0  0  0  0  0  0  0  0  0  0  0  0
    9.7500   -9.0933    0.0000 C   0  0  0  0  0  0  0  0  0  0  0  0
   10.5000   -7.7942    0.0000 C   0  0  0  0  0  0  0  0  0  0  0  0
    9.7500   -6.4952    0.0000 C   0  0  0  0  0  0  0  0  0  0  0  0
    8.2500   -6.4952    0.0000 C   0  0  0  0  0  0  0  0  0  0  0  0
    6.0000   -5.1962    0.0000 C   0  0  0  0  0  0  0  0  0  0  0  0
    5.5866   -3.7542    0.0000 O   0  0  0  0  0  0  0  0  0  0  0  0
    7.5000   -5.1962    0.0000 O   0  0  0  0  0  0  0  0  0  0  0  0
    1.5000    0.0000    0.0000 C   0  0  0  0  0  0  0  0  0  0  0  0
    0.7500    1.2990    0.0000 C   0  0  0  0  0  0  0  0  0  0  0  0
   -0.7500    1.2990    0.0000 C   0  0  0  0  0  0  0  0  0  0  0  0
  1  2  1  0
  2  3  1  0
  3  4  1  0
  4  5  1  0
  3  6  1  0
  6  7  1  0
  3  8  1  0
  8  9  1  0
  9 10  1  0
  9 11  1  0
 11 12  1  0
 12 13  1  0
 13 14  2  0
 14 15  1  0
 15 16  2  0
 16 17  1  0
 17 18  2  0
 11 19  1  0
 19 20  1  0
 20 21  2  0
 20 22  1  0
 22 23  1  0
 23 24  1  0
 24 25  1  0
 25 26  1  0
 26 27  1  0
 27 28  2  0
 27 29  1  0
 29 30  1  0
 30 31  1  0
 31 32  2  0
 32 33  1  0
 33 34  2  0
 34 35  1  0
 35 36  2  0
 29 37  1  0
 37 38  2  0
 37 39  1  0
 39 40  1  0
 40 41  1  0
 41 42  1  0
 42 43  2  0
 43 44  1  0
 44 45  2  0
 45 46  1  0
 46 47  2  0
 40 48  1  0
 48 49  2  0
 48 50  1  0
 25 51  1  0
 51 52  1  0
 52 53  1  0
 18 13  1  0
 52 22  1  0
 53 23  1  0
 36 31  1  0
 47 42  1  0
M  END
>  <Title>  (231) 
idAAPKgen6

$$$$

     RDKit          2D

 35 38  0  0  0  0  0  0  0  0999 V2000
   -4.4095    2.0130    0.0000 C   0  0  0  0  0  0  0  0  0  0  0  0
   -2.9095    2.0130    0.0000 C   0  0  0  0  0  0  0  0  0  0  0  0
   -1.4095    2.0130    0.0000 C   0  0  0  0  0  0  0  0  0  0  0  0
   -2.9095    3.5130    0.0000 C   0  0  0  0  0  0  0  0  0  0  0  0
   -2.9095    0.5130    0.0000 C   0  0  0  0  0  0  0  0  0  0  0  0
   -4.3191    0.0000    0.0000 C   0  0  0  0  0  0  0  0  0  0  0  0
   -5.0691   -1.2990    0.0000 C   0  0  0  0  0  0  0  0  0  0  0  0
   -4.8086   -2.7762    0.0000 C   0  0  0  0  0  0  0  0  0  0  0  0
   -6.1076   -3.5262    0.0000 C   0  0  0  0  0  0  0  0  0  0  0  0
   -7.4067   -2.7762    0.0000 C   0  0  0  0  0  0  0  0  0  0  0  0
   -8.6460   -3.6212    0.0000 C   0  0  0  0  0  0  0  0  0  0  0  0
  -10.0794   -3.1791    0.0000 C   0  0  0  0  0  0  0  0  0  0  0  0
  -10.6274   -1.7828    0.0000 C   0  0  0  0  0  0  0  0  0  0  0  0
   -9.8774   -0.4837    0.0000 C   0  0  0  0  0  0  0  0  0  0  0  0
   -8.3942   -0.2602    0.0000 C   0  0  0  0  0  0  0  0  0  0  0  0
   -7.2946   -1.2804    0.0000 C   0  0  0  0  0  0  0  0  0  0  0  0
   -6.5446    0.0186    0.0000 C   0  0  0  0  0  0  0  0  0  0  0  0
   -5.8612   -1.7226    0.0000 C   0  0  0  0  0  0  0  0  0  0  0  0
   -3.6595   -3.7404    0.0000 C   0  0  0  0  0  0  0  0  0  0  0  0
   -2.1595   -3.7404    0.0000 C   0  0  0  0  0  0  0  0  0  0  0  0
   -1.0105   -2.7762    0.0000 C   0  0  0  0  0  0  0  0  0  0  0  0
   -0.7500   -1.2990    0.0000 C   0  0  0  0  0  0  0  0  0  0  0  0
    0.2142   -2.4481    0.0000 C   0  0  0  0  0  0  0  0  0  0  0  0
    0.7500   -1.2990    0.0000 C   0  0  0  0  0  0  0  0  0  0  0  0
    1.5000   -2.5981    0.0000 C   0  0  0  0  0  0  0  0  0  0  0  0
    3.0000   -2.5981    0.0000 C   0  0  0  0  0  0  0  0  0  0  0  0
    3.7500   -3.8971    0.0000 C   0  0  0  0  0  0  0  0  0  0  0  0
    5.2418   -4.0539    0.0000 C   0  0  0  0  0  0  0  0  0  0  0  0
    5.5537   -5.5211    0.0000 C   0  0  0  0  0  0  0  0  0  0  0  0
    4.2546   -6.2711    0.0000 C   0  0  0  0  0  0  0  0  0  0  0  0
    3.1399   -5.2674    0.0000 C   0  0  0  0  0  0  0  0  0  0  0  0
    1.5000    0.0000    0.0000 C   0  0  0  0  0  0  0  0  0  0  0  0
    0.7500    1.2990    0.0000 C   0  0  0  0  0  0  0  0  0  0  0  0
   -0.7500    1.2990    0.0000 C   0  0  0  0  0  0  0  0  0  0  0  0
   -1.5000    0.0000    0.0000 C   0  0  0  0  0  0  0  0  0  0  0  0
  1  2  1  0
  2  3  1  0
  2  4  1  0
  2  5  1  0
  5  6  1  0
  6  7  1  0
  7  8  1  0
  8  9  1  0
  9 10  1  0
 10 11  1  0
 11 12  1  0
 12 13  1  0
 13 14  1  0
 14 15  1  0
 15 16  1  0
 16 17  1  0
 16 18  1  0
  8 19  1  0
 19 20  1  0
 20 21  1  0
 21 22  1  0
 22 23  1  0
 22 24  1  0
 24 25  1  0
 25 26  1  0
 26 27  1  0
 27 28  1  0
 28 29  1  0
 29 30  1  0
 30 31  1  0
 24 32  1  0
 32 33  1  0
 33 34  1  0
 34 35  1  0
 35  5  1  0
 16 10  1  0
 35 22  1  0
 31 27  1  0
M  END
>  <Title>  (232) 
idAAPLgen6

$$$$

     RDKit          2D

 63 70  0  0  0  0  0  0  0  0999 V2000
   -1.9605    4.6312    0.0000 O   0  0  0  0  0  0  0  0  0  0  0  0
   -3.2463    3.8586    0.0000 C   0  0  0  0  0  0  0  0  0  0  0  0
   -3.4031    2.3668    0.0000 N   0  0  0  0  0  0  0  0  0  0  0  0
   -2.1895    1.4851    0.0000 C   0  0  0  0  0  0  0  0  0  0  0  0
   -0.8192    2.0952    0.0000 C   0  0  0  0  0  0  0  0  0  0  0  0
    0.3943    1.2135    0.0000 C   0  0  0  0  0  0  0  0  0  0  0  0
    1.2760    0.0000    0.0000 C   0  0  0  0  0  0  0  0  0  0  0  0
    0.3943   -1.2135    0.0000 C   0  0  0  0  0  0  0  0  0  0  0  0
   -1.0323   -0.7500    0.0000 C   0  0  0  0  0  0  0  0  0  0  0  0
   -2.3463   -0.0067    0.0000 C   0  0  0  0  0  0  0  0  0  0  0  0
   -1.0323    0.7500    0.0000 N   0  0  0  0  0  0  0  0  0  0  0  0
   -2.2458    1.6317    0.0000 C   0  0  0  0  0  0  0  0  0  0  0  0
   -2.0890    3.1235    0.0000 C   0  0  0  0  0  0  0  0  0  0  0  0
   -3.3025    4.0051    0.0000 C   0  0  0  0  0  0  0  0  0  0  0  0
   -3.1458    5.4969    0.0000 C   0  0  0  0  0  0  0  0  0  0  0  0
   -4.3593    6.3786    0.0000 C   0  0  0  0  0  0  0  0  0  0  0  0
   -5.7296    5.7685    0.0000 C   0  0  0  0  0  0  0  0  0  0  0  0
   -5.8864    4.2767    0.0000 C   0  0  0  0  0  0  0  0  0  0  0  0
   -4.6729    3.3950    0.0000 C   0  0  0  0  0  0  0  0  0  0  0  0
   -4.4598    4.7402    0.0000 C   0  0  0  0  0  0  0  0  0  0  0  0
   -4.3030    6.2320    0.0000 C   0  0  0  0  0  0  0  0  0  0  0  0
   -5.5165    7.1137    0.0000 C   0  0  0  0  0  0  0  0  0  0  0  0
   -6.9431    7.5772    0.0000 C   0  0  0  0  0  0  0  0  0  0  0  0
   -7.8248    6.3637    0.0000 C   0  0  0  0  0  0  0  0  0  0  0  0
   -6.9431    5.1502    0.0000 C   0  0  0  0  0  0  0  0  0  0  0  0
   -5.8301    4.1301    0.0000 C   0  0  0  0  0  0  0  0  0  0  0  0
   -5.5165    5.6137    0.0000 C   0  0  0  0  0  0  0  0  0  0  0  0
   -4.3030    4.7320    0.0000 C   0  0  0  0  0  0  0  0  0  0  0  0
   -3.1210    5.6556    0.0000 O   0  0  0  0  0  0  0  0  0  0  0  0
   -4.4598    3.2402    0.0000 N   0  0  0  0  0  0  0  0  0  0  0  0
   -3.2463    2.3586    0.0000 C   0  0  0  0  0  0  0  0  0  0  0  0
   -3.4031    0.8668    0.0000 C   0  0  0  0  0  0  0  0  0  0  0  0
   -2.1895   -0.0149    0.0000 C   0  0  0  0  0  0  0  0  0  0  0  0
   -2.3463   -1.5067    0.0000 C   0  0  0  0  0  0  0  0  0  0  0  0
   -1.1328   -2.3884    0.0000 C   0  0  0  0  0  0  0  0  0  0  0  0
    0.2375   -1.7783    0.0000 C   0  0  0  0  0  0  0  0  0  0  0  0
    0.3943   -0.2865    0.0000 C   0  0  0  0  0  0  0  0  0  0  0  0
   -0.8192    0.5952    0.0000 C   0  0  0  0  0  0  0  0  0  0  0  0
   -1.8760    2.9687    0.0000 C   0  0  0  0  0  0  0  0  0  0  0  0
   -1.5385    4.4302    0.0000 O   0  0  0  0  0  0  0  0  0  0  0  0
   -0.6624    2.0870    0.0000 N   0  0  0  0  0  0  0  0  0  0  0  0
    0.7079    2.6971    0.0000 C   0  0  0  0  0  0  0  0  0  0  0  0
    1.9214    1.8154    0.0000 C   0  0  0  0  0  0  0  0  0  0  0  0
    3.2917    2.4255    0.0000 C   0  0  0  0  0  0  0  0  0  0  0  0
    4.5053    1.5438    0.0000 C   0  0  0  0  0  0  0  0  0  0  0  0
    5.8756    2.1539    0.0000 C   0  0  0  0  0  0  0  0  0  0  0  0
    6.0324    3.6457    0.0000 C   0  0  0  0  0  0  0  0  0  0  0  0
    4.8188    4.5274    0.0000 C   0  0  0  0  0  0  0  0  0  0  0  0
    3.4485    3.9173    0.0000 C   0  0  0  0  0  0  0  0  0  0  0  0
    0.8647    4.1889    0.0000 C   0  0  0  0  0  0  0  0  0  0  0  0
   -0.3488    5.0706    0.0000 O   0  0  0  0  0  0  0  0  0  0  0  0
    2.2350    4.7990    0.0000 N   0  0  0  0  0  0  0  0  0  0  0  0
    2.3918    6.2908    0.0000 C   0  0  0  0  0  0  0  0  0  0  0  0
    3.7621    6.9009    0.0000 C   0  0  0  0  0  0  0  0  0  0  0  0
    3.9189    8.3926    0.0000 C   0  0  0  0  0  0  0  0  0  0  0  0
    5.2892    9.0028    0.0000 C   0  0  0  0  0  0  0  0  0  0  0  0
    5.4460   10.4945    0.0000 C   0  0  0  0  0  0  0  0  0  0  0  0
    4.2325   11.3762    0.0000 C   0  0  0  0  0  0  0  0  0  0  0  0
    2.8622   10.7661    0.0000 C   0  0  0  0  0  0  0  0  0  0  0  0
    2.7054    9.2743    0.0000 C   0  0  0  0  0  0  0  0  0  0  0  0
    1.1783    7.1724    0.0000 C   0  0  0  0  0  0  0  0  0  0  0  0
   -0.1921    6.5623    0.0000 O   0  0  0  0  0  0  0  0  0  0  0  0
    1.3351    8.6642    0.0000 O   0  0  0  0  0  0  0  0  0  0  0  0
  1  2  2  0
  2  3  1  0
  3  4  1  0
  4  5  1  0
  5  6  1  0
  6  7  1  0
  7  8  1  0
  8  9  1  0
  9 10  1  0
  9 11  1  0
 11 12  1  0
 12 13  1  0
 13 14  1  0
 14 15  2  0
 15 16  1  0
 16 17  2  0
 17 18  1  0
 18 19  2  0
  2 20  1  0
 20 21  1  0
 21 22  1  0
 22 23  1  0
 23 24  1  0
 24 25  1  0
 25 26  1  0
 25 27  1  0
 27 28  1  0
 28 29  2  0
 28 30  1  0
 30 31  1  0
 31 32  1  0
 32 33  1  0
 33 34  2  0
 34 35  1  0
 35 36  2  0
 36 37  1  0
 37 38  2  0
 31 39  1  0
 39 40  2  0
 39 41  1  0
 41 42  1  0
 42 43  1  0
 43 44  1  0
 44 45  2  0
 45 46  1  0
 46 47  2  0
 47 48  1  0
 48 49  2  0
 42 50  1  0
 50 51  2  0
 50 52  1  0
 52 53  1  0
 53 54  1  0
 54 55  1  0
 55 56  2  0
 56 57  1  0
 57 58  2  0
 58 59  1  0
 59 60  2  0
 53 61  1  0
 61 62  2  0
 61 63  1  0
 10  4  1  0
 19 14  1  0
 26 20  1  0
 38 33  1  0
 49 44  1  0
 60 55  1  0
 11  6  1  0
 27 22  1  0
M  END
>  <Title>  (233) 
idAAPMgen6

$$$$

     RDKit          2D

 31 35  0  0  0  0  0  0  0  0999 V2000
   -4.1283    4.3103    0.0000 O   0  0  0  0  0  0  0  0  0  0  0  0
   -4.7925    2.9654    0.0000 C   0  0  0  0  0  0  0  0  0  0  0  0
   -6.2684    3.2332    0.0000 N   0  0  0  0  0  0  0  0  0  0  0  0
   -6.7744    4.6453    0.0000 C   0  0  0  0  0  0  0  0  0  0  0  0
   -8.2503    4.9131    0.0000 C   0  0  0  0  0  0  0  0  0  0  0  0
   -8.7704    3.5062    0.0000 C   0  0  0  0  0  0  0  0  0  0  0  0
  -10.2489    3.2531    0.0000 C   0  0  0  0  0  0  0  0  0  0  0  0
  -10.7689    1.8461    0.0000 C   0  0  0  0  0  0  0  0  0  0  0  0
   -9.8105    0.6923    0.0000 C   0  0  0  0  0  0  0  0  0  0  0  0
   -8.3320    0.9454    0.0000 C   0  0  0  0  0  0  0  0  0  0  0  0
   -7.8119    2.3523    0.0000 N   0  0  0  0  0  0  0  0  0  0  0  0
   -9.5456    5.6696    0.0000 C   0  0  0  0  0  0  0  0  0  0  0  0
   -8.2428    6.4131    0.0000 C   0  0  0  0  0  0  0  0  0  0  0  0
   -4.2865    1.5533    0.0000 N   0  0  0  0  0  0  0  0  0  0  0  0
   -2.8106    1.2855    0.0000 C   0  0  0  0  0  0  0  0  0  0  0  0
   -1.9290    2.4990    0.0000 C   0  0  0  0  0  0  0  0  0  0  0  0
   -0.4305    2.5663    0.0000 O   0  0  0  0  0  0  0  0  0  0  0  0
    0.3943    1.2135    0.0000 C   0  0  0  0  0  0  0  0  0  0  0  0
    1.2760    0.0000    0.0000 C   0  0  0  0  0  0  0  0  0  0  0  0
    0.3943   -1.2135    0.0000 C   0  0  0  0  0  0  0  0  0  0  0  0
   -1.0323   -0.7500    0.0000 C   0  0  0  0  0  0  0  0  0  0  0  0
   -2.4116   -0.1605    0.0000 C   0  0  0  0  0  0  0  0  0  0  0  0
   -1.0323    0.7500    0.0000 N   0  0  0  0  0  0  0  0  0  0  0  0
   -2.2458    1.6317    0.0000 C   0  0  0  0  0  0  0  0  0  0  0  0
   -2.0890    3.1235    0.0000 C   0  0  0  0  0  0  0  0  0  0  0  0
   -3.3025    4.0051    0.0000 C   0  0  0  0  0  0  0  0  0  0  0  0
   -3.1458    5.4969    0.0000 C   0  0  0  0  0  0  0  0  0  0  0  0
   -4.3593    6.3786    0.0000 C   0  0  0  0  0  0  0  0  0  0  0  0
   -5.7296    5.7685    0.0000 C   0  0  0  0  0  0  0  0  0  0  0  0
   -5.8864    4.2767    0.0000 C   0  0  0  0  0  0  0  0  0  0  0  0
   -4.6729    3.3950    0.0000 C   0  0  0  0  0  0  0  0  0  0  0  0
  1  2  2  0
  2  3  1  0
  3  4  1  0
  4  5  1  0
  5  6  1  0
  6  7  2  0
  7  8  1  0
  8  9  2  0
  9 10  1  0
 10 11  2  0
  5 12  1  0
 12 13  1  0
  2 14  1  0
 14 15  1  0
 15 16  1  0
 16 17  1  0
 17 18  1  0
 18 19  1  0
 19 20  1  0
 20 21  1  0
 21 22  1  0
 21 23  1  0
 23 24  1  0
 24 25  1  0
 25 26  1  0
 26 27  2  0
 27 28  1  0
 28 29  2  0
 29 30  1  0
 30 31  2  0
 13  5  1  0
 22 15  1  0
 31 26  1  0
 11  6  1  0
 23 18  1  0
M  END
>  <Title>  (234) 
idAAPNgen6

$$$$

     RDKit          2D

 38 40  0  0  0  0  0  0  0  0999 V2000
    4.6740  -12.6264    0.0000 C   0  0  0  0  0  0  0  0  0  0  0  0
    3.3037  -12.0163    0.0000 C   0  0  0  0  0  0  0  0  0  0  0  0
    2.9918  -10.5491    0.0000 C   0  0  0  0  0  0  0  0  0  0  0  0
    1.5000  -10.3923    0.0000 C   0  0  0  0  0  0  0  0  0  0  0  0
    0.7500   -9.0933    0.0000 C   0  0  0  0  0  0  0  0  0  0  0  0
    1.5000   -7.7942    0.0000 N   0  0  0  0  0  0  0  0  0  0  0  0
    0.7500   -6.4952    0.0000 C   0  0  0  0  0  0  0  0  0  0  0  0
   -0.7500   -6.4952    0.0000 O   0  0  0  0  0  0  0  0  0  0  0  0
    1.5000   -5.1962    0.0000 C   0  0  0  0  0  0  0  0  0  0  0  0
    3.0000   -5.1962    0.0000 O   0  0  0  0  0  0  0  0  0  0  0  0
    0.7500   -3.8971    0.0000 C   0  0  0  0  0  0  0  0  0  0  0  0
    1.5000   -2.5981    0.0000 C   0  0  0  0  0  0  0  0  0  0  0  0
    0.7500   -1.2990    0.0000 C   0  0  0  0  0  0  0  0  0  0  0  0
    1.5000    0.0000    0.0000 C   0  0  0  0  0  0  0  0  0  0  0  0
    0.7500    1.2990    0.0000 C   0  0  0  0  0  0  0  0  0  0  0  0
   -0.7500    1.2990    0.0000 C   0  0  0  0  0  0  0  0  0  0  0  0
   -1.5000    0.0000    0.0000 C   0  0  0  0  0  0  0  0  0  0  0  0
   -0.7500   -1.2990    0.0000 C   0  0  0  0  0  0  0  0  0  0  0  0
   -0.7500   -3.8971    0.0000 C   0  0  0  0  0  0  0  0  0  0  0  0
   -1.5000   -2.5981    0.0000 O   0  0  0  0  0  0  0  0  0  0  0  0
   -1.5000   -5.1962    0.0000 N   0  0  0  0  0  0  0  0  0  0  0  0
   -3.0000   -5.1962    0.0000 C   0  0  0  0  0  0  0  0  0  0  0  0
   -3.7500   -6.4952    0.0000 C   0  0  0  0  0  0  0  0  0  0  0  0
   -5.2500   -6.4952    0.0000 C   0  0  0  0  0  0  0  0  0  0  0  0
   -6.0000   -5.1962    0.0000 C   0  0  0  0  0  0  0  0  0  0  0  0
   -7.5000   -5.1962    0.0000 C   0  0  0  0  0  0  0  0  0  0  0  0
   -8.2500   -6.4952    0.0000 C   0  0  0  0  0  0  0  0  0  0  0  0
   -7.5000   -7.7942    0.0000 C   0  0  0  0  0  0  0  0  0  0  0  0
   -6.0000   -7.7942    0.0000 C   0  0  0  0  0  0  0  0  0  0  0  0
   -3.7500   -3.8971    0.0000 C   0  0  0  0  0  0  0  0  0  0  0  0
   -3.0000   -2.5981    0.0000 O   0  0  0  0  0  0  0  0  0  0  0  0
   -5.2500   -3.8971    0.0000 O   0  0  0  0  0  0  0  0  0  0  0  0
    0.8899  -11.7626    0.0000 C   0  0  0  0  0  0  0  0  0  0  0  0
    2.0046  -12.7663    0.0000 N   0  0  0  0  0  0  0  0  0  0  0  0
    1.8478  -14.2581    0.0000 C   0  0  0  0  0  0  0  0  0  0  0  0
    0.3560  -14.1013    0.0000 C   0  0  0  0  0  0  0  0  0  0  0  0
    3.3396  -14.4149    0.0000 C   0  0  0  0  0  0  0  0  0  0  0  0
    1.6910  -15.7499    0.0000 C   0  0  0  0  0  0  0  0  0  0  0  0
  1  2  1  0
  2  3  1  0
  3  4  1  0
  4  5  1  0
  5  6  1  0
  6  7  1  0
  7  8  2  0
  7  9  1  0
  9 10  1  0
  9 11  1  0
 11 12  1  0
 12 13  1  0
 13 14  2  0
 14 15  1  0
 15 16  2  0
 16 17  1  0
 17 18  2  0
 11 19  1  0
 19 20  2  0
 19 21  1  0
 21 22  1  0
 22 23  1  0
 23 24  1  0
 24 25  2  0
 25 26  1  0
 26 27  2  0
 27 28  1  0
 28 29  2  0
 22 30  1  0
 30 31  2  0
 30 32  1  0
  4 33  1  0
 33 34  1  0
 34 35  1  0
 35 36  1  0
 35 37  1  0
 35 38  1  0
 34  2  1  0
 18 13  1  0
 29 24  1  0
M  END
>  <Title>  (235) 
idAAPOgen6

$$$$

     RDKit          2D

 15 16  0  0  0  0  0  0  0  0999 V2000
    2.6491    0.9642    0.0000 C   0  0  0  0  0  0  0  0  0  0  0  0
    1.5000    0.0000    0.0000 C   0  0  0  0  0  0  0  0  0  0  0  0
    2.6491   -0.9642    0.0000 C   0  0  0  0  0  0  0  0  0  0  0  0
    0.7500   -1.2990    0.0000 C   0  0  0  0  0  0  0  0  0  0  0  0
   -0.7500   -1.2990    0.0000 C   0  0  0  0  0  0  0  0  0  0  0  0
   -1.5000    0.0000    0.0000 C   0  0  0  0  0  0  0  0  0  0  0  0
   -0.7500    1.2990    0.0000 C   0  0  0  0  0  0  0  0  0  0  0  0
   -2.2500    1.2990    0.0000 C   0  0  0  0  0  0  0  0  0  0  0  0
   -1.5000    2.5981    0.0000 C   0  0  0  0  0  0  0  0  0  0  0  0
   -3.0000    2.5981    0.0000 C   0  0  0  0  0  0  0  0  0  0  0  0
   -3.7500    3.8971    0.0000 O   0  0  0  0  0  0  0  0  0  0  0  0
   -0.7500    3.8971    0.0000 C   0  0  0  0  0  0  0  0  0  0  0  0
    0.7500    3.8971    0.0000 C   0  0  0  0  0  0  0  0  0  0  0  0
    1.5000    2.5981    0.0000 C   0  0  0  0  0  0  0  0  0  0  0  0
    0.7500    1.2990    0.0000 C   0  0  0  0  0  0  0  0  0  0  0  0
  1  2  1  0
  2  3  1  0
  2  4  1  0
  4  5  1  0
  5  6  1  0
  6  7  1  0
  7  8  1  0
  7  9  1  0
  9 10  1  0
 10 11  1  0
  9 12  1  0
 12 13  1  0
 13 14  1  0
 14 15  1  0
 15  2  1  0
 15  7  1  0
M  END
>  <Title>  (236) 
idAAPPgen6

$$$$

     RDKit          2D

 34 39  0  0  0  0  0  0  0  0999 V2000
   -4.7734    1.7567    0.0000 O   0  0  0  0  0  0  0  0  0  0  0  0
   -3.4031    2.3668    0.0000 C   0  0  0  0  0  0  0  0  0  0  0  0
   -3.2463    3.8586    0.0000 N   0  0  0  0  0  0  0  0  0  0  0  0
   -4.4598    4.7402    0.0000 C   0  0  0  0  0  0  0  0  0  0  0  0
   -4.3030    6.2320    0.0000 C   0  0  0  0  0  0  0  0  0  0  0  0
   -5.5165    7.1137    0.0000 C   0  0  0  0  0  0  0  0  0  0  0  0
   -6.8869    6.5036    0.0000 C   0  0  0  0  0  0  0  0  0  0  0  0
   -7.0436    5.0118    0.0000 C   0  0  0  0  0  0  0  0  0  0  0  0
   -5.8301    4.1301    0.0000 C   0  0  0  0  0  0  0  0  0  0  0  0
   -5.6733    5.6219    0.0000 N   0  0  0  0  0  0  0  0  0  0  0  0
   -4.4598    4.7402    0.0000 C   0  0  0  0  0  0  0  0  0  0  0  0
   -3.0895    5.3503    0.0000 C   0  0  0  0  0  0  0  0  0  0  0  0
   -1.8760    4.4687    0.0000 C   0  0  0  0  0  0  0  0  0  0  0  0
   -2.0328    2.9769    0.0000 C   0  0  0  0  0  0  0  0  0  0  0  0
   -0.8192    2.0952    0.0000 C   0  0  0  0  0  0  0  0  0  0  0  0
    0.5511    2.7053    0.0000 C   0  0  0  0  0  0  0  0  0  0  0  0
    0.7079    4.1971    0.0000 C   0  0  0  0  0  0  0  0  0  0  0  0
   -0.5056    5.0788    0.0000 C   0  0  0  0  0  0  0  0  0  0  0  0
   -2.1895    1.4851    0.0000 C   0  0  0  0  0  0  0  0  0  0  0  0
   -0.8192    2.0952    0.0000 C   0  0  0  0  0  0  0  0  0  0  0  0
    0.3943    1.2135    0.0000 C   0  0  0  0  0  0  0  0  0  0  0  0
    1.2760    0.0000    0.0000 C   0  0  0  0  0  0  0  0  0  0  0  0
    0.3943   -1.2135    0.0000 C   0  0  0  0  0  0  0  0  0  0  0  0
   -1.0323   -0.7500    0.0000 C   0  0  0  0  0  0  0  0  0  0  0  0
   -2.3463   -0.0067    0.0000 C   0  0  0  0  0  0  0  0  0  0  0  0
   -1.0323    0.7500    0.0000 N   0  0  0  0  0  0  0  0  0  0  0  0
   -2.2458    1.6317    0.0000 C   0  0  0  0  0  0  0  0  0  0  0  0
   -2.0890    3.1235    0.0000 C   0  0  0  0  0  0  0  0  0  0  0  0
   -3.3025    4.0051    0.0000 C   0  0  0  0  0  0  0  0  0  0  0  0
   -3.1458    5.4969    0.0000 C   0  0  0  0  0  0  0  0  0  0  0  0
   -4.3593    6.3786    0.0000 C   0  0  0  0  0  0  0  0  0  0  0  0
   -5.7296    5.7685    0.0000 C   0  0  0  0  0  0  0  0  0  0  0  0
   -5.8864    4.2767    0.0000 C   0  0  0  0  0  0  0  0  0  0  0  0
   -4.6729    3.3950    0.0000 C   0  0  0  0  0  0  0  0  0  0  0  0
  1  2  2  0
  2  3  1  0
  3  4  1  0
  4  5  1  0
  5  6  1  0
  6  7  1  0
  7  8  1  0
  8  9  1  0
  8 10  1  0
 10 11  1  0
 11 12  1  0
 12 13  1  0
 13 14  2  0
 14 15  1  0
 15 16  2  0
 16 17  1  0
 17 18  2  0
  2 19  1  0
 19 20  1  0
 20 21  1  0
 21 22  1  0
 22 23  1  0
 23 24  1  0
 24 25  1  0
 24 26  1  0
 26 27  1  0
 27 28  1  0
 28 29  1  0
 29 30  2  0
 30 31  1  0
 31 32  2  0
 32 33  1  0
 33 34  2  0
  9  4  1  0
 18 13  1  0
 25 19  1  0
 34 29  1  0
 10  6  1  0
 26 21  1  0
M  END
>  <Title>  (237) 
idAAPQgen6

$$$$

     RDKit          2D

 78 86  0  0  0  0  0  0  0  0999 V2000
   -8.0769   -4.8979    0.0000 C   0  0  0  0  0  0  0  0  0  0  0  0
   -6.7437   -5.5853    0.0000 C   0  0  0  0  0  0  0  0  0  0  0  0
   -6.3703   -4.1325    0.0000 C   0  0  0  0  0  0  0  0  0  0  0  0
   -7.7105   -6.7322    0.0000 C   0  0  0  0  0  0  0  0  0  0  0  0
   -7.4166   -8.2031    0.0000 C   0  0  0  0  0  0  0  0  0  0  0  0
   -6.0833   -8.8904    0.0000 C   0  0  0  0  0  0  0  0  0  0  0  0
   -4.7147   -8.2766    0.0000 C   0  0  0  0  0  0  0  0  0  0  0  0
   -4.3412   -6.8238    0.0000 C   0  0  0  0  0  0  0  0  0  0  0  0
   -5.2442   -5.6261    0.0000 C   0  0  0  0  0  0  0  0  0  0  0  0
   -4.5569   -4.2928    0.0000 C   0  0  0  0  0  0  0  0  0  0  0  0
   -3.0840   -4.5767    0.0000 C   0  0  0  0  0  0  0  0  0  0  0  0
   -1.6915   -4.0192    0.0000 C   0  0  0  0  0  0  0  0  0  0  0  0
   -0.8214   -2.7973    0.0000 C   0  0  0  0  0  0  0  0  0  0  0  0
   -0.7500   -1.2990    0.0000 C   0  0  0  0  0  0  0  0  0  0  0  0
    0.2851   -2.3846    0.0000 C   0  0  0  0  0  0  0  0  0  0  0  0
    0.7500   -1.2990    0.0000 C   0  0  0  0  0  0  0  0  0  0  0  0
    1.5000   -2.5981    0.0000 C   0  0  0  0  0  0  0  0  0  0  0  0
    3.0000   -2.5981    0.0000 C   0  0  0  0  0  0  0  0  0  0  0  0
    3.7500   -3.8971    0.0000 C   0  0  0  0  0  0  0  0  0  0  0  0
    5.2418   -4.0539    0.0000 C   0  0  0  0  0  0  0  0  0  0  0  0
    5.5537   -5.5211    0.0000 C   0  0  0  0  0  0  0  0  0  0  0  0
    4.2546   -6.2711    0.0000 C   0  0  0  0  0  0  0  0  0  0  0  0
    3.1399   -5.2674    0.0000 C   0  0  0  0  0  0  0  0  0  0  0  0
    1.5000    0.0000    0.0000 C   0  0  0  0  0  0  0  0  0  0  0  0
    0.7500    1.2990    0.0000 C   0  0  0  0  0  0  0  0  0  0  0  0
   -0.7500    1.2990    0.0000 C   0  0  0  0  0  0  0  0  0  0  0  0
   -1.5000    0.0000    0.0000 C   0  0  0  0  0  0  0  0  0  0  0  0
   -1.7440    1.4800    0.0000 C   0  0  0  0  0  0  0  0  0  0  0  0
   -2.8333    0.6873    0.0000 C   0  0  0  0  0  0  0  0  0  0  0  0
   -2.5494    2.1602    0.0000 C   0  0  0  0  0  0  0  0  0  0  0  0
   -1.1319    2.6508    0.0000 C   0  0  0  0  0  0  0  0  0  0  0  0
   -0.8480    4.1237    0.0000 C   0  0  0  0  0  0  0  0  0  0  0  0
    0.5695    4.6143    0.0000 C   0  0  0  0  0  0  0  0  0  0  0  0
    0.8534    6.0872    0.0000 C   0  0  0  0  0  0  0  0  0  0  0  0
   -0.2802    7.0695    0.0000 C   0  0  0  0  0  0  0  0  0  0  0  0
   -1.6977    6.5789    0.0000 C   0  0  0  0  0  0  0  0  0  0  0  0
    0.2302    3.9159    0.0000 C   0  0  0  0  0  0  0  0  0  0  0  0
    1.7031    3.6320    0.0000 C   0  0  0  0  0  0  0  0  0  0  0  0
    1.9870    5.1049    0.0000 C   0  0  0  0  0  0  0  0  0  0  0  0
    0.2856    3.1414    0.0000 C   0  0  0  0  0  0  0  0  0  0  0  0
   -1.9816    5.1060    0.0000 C   0  0  0  0  0  0  0  0  0  0  0  0
   -4.3265    0.5448    0.0000 C   0  0  0  0  0  0  0  0  0  0  0  0
   -3.9728    2.0025    0.0000 C   0  0  0  0  0  0  0  0  0  0  0  0
   -5.0584    3.0376    0.0000 C   0  0  0  0  0  0  0  0  0  0  0  0
   -6.3575    2.2876    0.0000 C   0  0  0  0  0  0  0  0  0  0  0  0
   -7.8558    2.3590    0.0000 C   0  0  0  0  0  0  0  0  0  0  0  0
   -9.0776    3.2290    0.0000 C   0  0  0  0  0  0  0  0  0  0  0  0
   -9.6351    4.6216    0.0000 C   0  0  0  0  0  0  0  0  0  0  0  0
   -9.3512    6.0945    0.0000 C   0  0  0  0  0  0  0  0  0  0  0  0
   -8.3161    7.1801    0.0000 C   0  0  0  0  0  0  0  0  0  0  0  0
   -6.8584    7.5337    0.0000 C   0  0  0  0  0  0  0  0  0  0  0  0
   -5.4409    7.0431    0.0000 C   0  0  0  0  0  0  0  0  0  0  0  0
   -4.5137    5.8641    0.0000 C   0  0  0  0  0  0  0  0  0  0  0  0
   -4.3711    4.3708    0.0000 C   0  0  0  0  0  0  0  0  0  0  0  0
   -3.0066    4.9940    0.0000 C   0  0  0  0  0  0  0  0  0  0  0  0
   -3.3360    3.2852    0.0000 C   0  0  0  0  0  0  0  0  0  0  0  0
   -3.7586    1.8460    0.0000 C   0  0  0  0  0  0  0  0  0  0  0  0
   -5.2163    1.4924    0.0000 C   0  0  0  0  0  0  0  0  0  0  0  0
   -5.6389    0.0531    0.0000 C   0  0  0  0  0  0  0  0  0  0  0  0
   -4.6038   -1.0325    0.0000 O   0  0  0  0  0  0  0  0  0  0  0  0
   -7.0966   -0.3005    0.0000 C   0  0  0  0  0  0  0  0  0  0  0  0
   -7.2959    1.1862    0.0000 O   0  0  0  0  0  0  0  0  0  0  0  0
   -8.5960   -0.3433    0.0000 C   0  0  0  0  0  0  0  0  0  0  0  0
   -9.0186   -1.7826    0.0000 C   0  0  0  0  0  0  0  0  0  0  0  0
   -7.7804   -2.6293    0.0000 C   0  0  0  0  0  0  0  0  0  0  0  0
   -6.5925   -1.7133    0.0000 C   0  0  0  0  0  0  0  0  0  0  0  0
   -2.7234    0.7604    0.0000 C   0  0  0  0  0  0  0  0  0  0  0  0
   -1.4894    1.6131    0.0000 O   0  0  0  0  0  0  0  0  0  0  0  0
   -3.1460   -0.6788    0.0000 C   0  0  0  0  0  0  0  0  0  0  0  0
   -2.1109   -1.7644    0.0000 O   0  0  0  0  0  0  0  0  0  0  0  0
   -5.5883    1.3557    0.0000 C   0  0  0  0  0  0  0  0  0  0  0  0
   -5.1068    2.7763    0.0000 C   0  0  0  0  0  0  0  0  0  0  0  0
   -6.3993    0.0938    0.0000 C   0  0  0  0  0  0  0  0  0  0  0  0
   -7.0090    1.8372    0.0000 C   0  0  0  0  0  0  0  0  0  0  0  0
   -5.5055   -0.3825    0.0000 C   0  0  0  0  0  0  0  0  0  0  0  0
   -5.9961   -1.8000    0.0000 C   0  0  0  0  0  0  0  0  0  0  0  0
   -7.4944   -1.7286    0.0000 O   0  0  0  0  0  0  0  0  0  0  0  0
   -5.6425   -3.2577    0.0000 C   0  0  0  0  0  0  0  0  0  0  0  0
  1  2  1  0
  2  3  1  0
  2  4  1  0
  4  5  1  0
  5  6  1  0
  6  7  1  0
  7  8  1  0
  8  9  1  0
  9 10  1  0
 10 11  1  0
 11 12  1  0
 12 13  1  0
 13 14  1  0
 14 15  1  0
 14 16  1  0
 16 17  1  0
 17 18  1  0
 18 19  1  0
 19 20  1  0
 20 21  1  0
 21 22  1  0
 22 23  1  0
 16 24  1  0
 24 25  1  0
 25 26  1  0
 26 27  1  0
 27 28  1  0
 27 29  1  0
 29 30  1  0
 30 31  1  0
 31 32  1  0
 32 33  1  0
 33 34  1  0
 34 35  1  0
 35 36  1  0
 36 37  1  0
 37 38  1  0
 38 39  1  0
 38 40  1  0
 36 41  1  0
 29 42  1  0
 42 43  1  0
 43 44  1  0
 44 45  1  0
 45 46  1  0
 46 47  1  0
 47 48  1  0
 48 49  1  0
 49 50  1  0
 50 51  1  0
 51 52  1  0
 52 53  1  0
 53 54  1  0
 54 55  1  0
 54 56  1  0
 56 57  1  0
 57 58  1  0
 58 59  1  0
 59 60  1  0
 59 61  1  0
 61 62  1  0
 61 63  1  0
 63 64  1  0
 64 65  1  0
 65 66  1  0
 57 67  1  0
 67 68  1  0
 67 69  1  0
 69 70  1  0
 42 71  1  0
 71 72  1  0
 71 73  1  0
 71 74  1  0
 42 75  1  0
 75 76  1  0
 76 77  1  0
 76 78  1  0
  9  2  1  0
 78 10  1  0
 27 14  1  0
 40 32  1  0
 54 44  1  0
 66 61  1  0
 23 19  1  0
 41 32  1  0
 39 34  1  0
M  END
>  <Title>  (238) 
idAAPRgen6

$$$$

     RDKit          2D

 62 69  0  0  0  0  0  0  0  0999 V2000
   -7.0699    6.5116    0.0000 O   0  0  0  0  0  0  0  0  0  0  0  0
   -7.0436    5.0118    0.0000 C   0  0  0  0  0  0  0  0  0  0  0  0
   -5.8301    4.1301    0.0000 N   0  0  0  0  0  0  0  0  0  0  0  0
   -4.4598    4.7402    0.0000 C   0  0  0  0  0  0  0  0  0  0  0  0
   -4.3030    6.2320    0.0000 C   0  0  0  0  0  0  0  0  0  0  0  0
   -2.9327    6.8421    0.0000 C   0  0  0  0  0  0  0  0  0  0  0  0
   -2.7759    8.3339    0.0000 C   0  0  0  0  0  0  0  0  0  0  0  0
   -1.4056    8.9440    0.0000 C   0  0  0  0  0  0  0  0  0  0  0  0
   -0.1921    8.0623    0.0000 C   0  0  0  0  0  0  0  0  0  0  0  0
   -0.3488    6.5706    0.0000 C   0  0  0  0  0  0  0  0  0  0  0  0
   -1.7192    5.9604    0.0000 C   0  0  0  0  0  0  0  0  0  0  0  0
   -3.2463    3.8586    0.0000 C   0  0  0  0  0  0  0  0  0  0  0  0
   -1.8760    4.4687    0.0000 O   0  0  0  0  0  0  0  0  0  0  0  0
   -3.4031    2.3668    0.0000 N   0  0  0  0  0  0  0  0  0  0  0  0
   -2.1895    1.4851    0.0000 C   0  0  0  0  0  0  0  0  0  0  0  0
   -0.8192    2.0952    0.0000 C   0  0  0  0  0  0  0  0  0  0  0  0
    0.3943    1.2135    0.0000 C   0  0  0  0  0  0  0  0  0  0  0  0
    1.2760    0.0000    0.0000 C   0  0  0  0  0  0  0  0  0  0  0  0
    0.3943   -1.2135    0.0000 C   0  0  0  0  0  0  0  0  0  0  0  0
   -1.0323   -0.7500    0.0000 C   0  0  0  0  0  0  0  0  0  0  0  0
   -2.3463   -0.0067    0.0000 C   0  0  0  0  0  0  0  0  0  0  0  0
   -1.0323    0.7500    0.0000 N   0  0  0  0  0  0  0  0  0  0  0  0
   -2.2458    1.6317    0.0000 C   0  0  0  0  0  0  0  0  0  0  0  0
   -2.0890    3.1235    0.0000 C   0  0  0  0  0  0  0  0  0  0  0  0
   -3.3025    4.0051    0.0000 C   0  0  0  0  0  0  0  0  0  0  0  0
   -3.1458    5.4969    0.0000 C   0  0  0  0  0  0  0  0  0  0  0  0
   -4.3593    6.3786    0.0000 C   0  0  0  0  0  0  0  0  0  0  0  0
   -5.7296    5.7685    0.0000 C   0  0  0  0  0  0  0  0  0  0  0  0
   -5.8864    4.2767    0.0000 C   0  0  0  0  0  0  0  0  0  0  0  0
   -4.6729    3.3950    0.0000 C   0  0  0  0  0  0  0  0  0  0  0  0
   -8.4140    4.4017    0.0000 C   0  0  0  0  0  0  0  0  0  0  0  0
   -9.6275    5.2834    0.0000 C   0  0  0  0  0  0  0  0  0  0  0  0
  -10.9978    4.6733    0.0000 C   0  0  0  0  0  0  0  0  0  0  0  0
  -11.1546    3.1815    0.0000 C   0  0  0  0  0  0  0  0  0  0  0  0
   -9.9411    2.2998    0.0000 C   0  0  0  0  0  0  0  0  0  0  0  0
   -8.5708    2.9099    0.0000 C   0  0  0  0  0  0  0  0  0  0  0  0
   -9.7843    3.7916    0.0000 C   0  0  0  0  0  0  0  0  0  0  0  0
   -8.4140    4.4017    0.0000 C   0  0  0  0  0  0  0  0  0  0  0  0
   -8.2572    5.8935    0.0000 O   0  0  0  0  0  0  0  0  0  0  0  0
   -7.2004    3.5200    0.0000 N   0  0  0  0  0  0  0  0  0  0  0  0
   -5.8301    4.1301    0.0000 C   0  0  0  0  0  0  0  0  0  0  0  0
   -4.6166    3.2485    0.0000 C   0  0  0  0  0  0  0  0  0  0  0  0
   -3.2463    3.8586    0.0000 C   0  0  0  0  0  0  0  0  0  0  0  0
   -2.0328    2.9769    0.0000 C   0  0  0  0  0  0  0  0  0  0  0  0
   -0.6624    3.5870    0.0000 C   0  0  0  0  0  0  0  0  0  0  0  0
   -0.5056    5.0788    0.0000 C   0  0  0  0  0  0  0  0  0  0  0  0
   -1.7192    5.9604    0.0000 C   0  0  0  0  0  0  0  0  0  0  0  0
   -3.0895    5.3503    0.0000 C   0  0  0  0  0  0  0  0  0  0  0  0
   -5.6733    5.6219    0.0000 C   0  0  0  0  0  0  0  0  0  0  0  0
   -6.7703    6.6449    0.0000 O   0  0  0  0  0  0  0  0  0  0  0  0
   -4.3030    6.2320    0.0000 N   0  0  0  0  0  0  0  0  0  0  0  0
   -4.1462    7.7238    0.0000 C   0  0  0  0  0  0  0  0  0  0  0  0
   -2.7759    8.3339    0.0000 C   0  0  0  0  0  0  0  0  0  0  0  0
   -2.6191    9.8257    0.0000 C   0  0  0  0  0  0  0  0  0  0  0  0
   -1.2488   10.4358    0.0000 C   0  0  0  0  0  0  0  0  0  0  0  0
   -1.0920   11.9276    0.0000 C   0  0  0  0  0  0  0  0  0  0  0  0
   -2.3055   12.8093    0.0000 C   0  0  0  0  0  0  0  0  0  0  0  0
   -3.6758   12.1992    0.0000 C   0  0  0  0  0  0  0  0  0  0  0  0
   -3.8326   10.7074    0.0000 C   0  0  0  0  0  0  0  0  0  0  0  0
   -5.3597    8.6055    0.0000 C   0  0  0  0  0  0  0  0  0  0  0  0
   -6.7301    7.9954    0.0000 O   0  0  0  0  0  0  0  0  0  0  0  0
   -5.2030   10.0973    0.0000 O   0  0  0  0  0  0  0  0  0  0  0  0
  1  2  2  0
  2  3  1  0
  3  4  1  0
  4  5  1  0
  5  6  1  0
  6  7  2  0
  7  8  1  0
  8  9  2  0
  9 10  1  0
 10 11  2  0
  4 12  1  0
 12 13  2  0
 12 14  1  0
 14 15  1  0
 15 16  1  0
 16 17  1  0
 17 18  1  0
 18 19  1  0
 19 20  1  0
 20 21  1  0
 20 22  1  0
 22 23  1  0
 23 24  1  0
 24 25  1  0
 25 26  2  0
 26 27  1  0
 27 28  2  0
 28 29  1  0
 29 30  2  0
  2 31  1  0
 31 32  1  0
 32 33  1  0
 33 34  1  0
 34 35  1  0
 35 36  1  0
 35 37  1  0
 37 38  1  0
 38 39  2  0
 38 40  1  0
 40 41  1  0
 41 42  1  0
 42 43  1  0
 43 44  2  0
 44 45  1  0
 45 46  2  0
 46 47  1  0
 47 48  2  0
 41 49  1  0
 49 50  2  0
 49 51  1  0
 51 52  1  0
 52 53  1  0
 53 54  1  0
 54 55  2  0
 55 56  1  0
 56 57  2  0
 57 58  1  0
 58 59  2  0
 52 60  1  0
 60 61  2  0
 60 62  1  0
 11  6  1  0
 21 15  1  0
 30 25  1  0
 36 31  1  0
 48 43  1  0
 59 54  1  0
 22 17  1  0
 37 33  1  0
M  END
>  <Title>  (239) 
idAAPSgen6

$$$$

     RDKit          2D

 65 72  0  0  0  0  0  0  0  0999 V2000
    3.5106    2.7580    0.0000 C   0  0  0  0  0  0  0  0  0  0  0  0
    2.5159    1.6352    0.0000 C   0  0  0  0  0  0  0  0  0  0  0  0
    1.8188    2.9634    0.0000 C   0  0  0  0  0  0  0  0  0  0  0  0
    0.3201    3.0238    0.0000 C   0  0  0  0  0  0  0  0  0  0  0  0
   -0.4816    1.7560    0.0000 C   0  0  0  0  0  0  0  0  0  0  0  0
   -1.9804    1.8164    0.0000 C   0  0  0  0  0  0  0  0  0  0  0  0
   -2.6775    3.1446    0.0000 O   0  0  0  0  0  0  0  0  0  0  0  0
   -2.7821    0.5486    0.0000 C   0  0  0  0  0  0  0  0  0  0  0  0
   -1.4375   -0.1162    0.0000 O   0  0  0  0  0  0  0  0  0  0  0  0
   -3.3027   -0.8581    0.0000 C   0  0  0  0  0  0  0  0  0  0  0  0
   -4.8015   -0.7977    0.0000 C   0  0  0  0  0  0  0  0  0  0  0  0
   -5.2072    0.6463    0.0000 C   0  0  0  0  0  0  0  0  0  0  0  0
   -3.9592    1.4784    0.0000 C   0  0  0  0  0  0  0  0  0  0  0  0
   -0.3770    4.3520    0.0000 C   0  0  0  0  0  0  0  0  0  0  0  0
    0.4247    5.6198    0.0000 O   0  0  0  0  0  0  0  0  0  0  0  0
   -1.8758    4.4124    0.0000 C   0  0  0  0  0  0  0  0  0  0  0  0
   -2.5729    5.7406    0.0000 O   0  0  0  0  0  0  0  0  0  0  0  0
    1.0269    1.4544    0.0000 C   0  0  0  0  0  0  0  0  0  0  0  0
   -0.2076    0.6023    0.0000 C   0  0  0  0  0  0  0  0  0  0  0  0
   -0.9047   -0.7259    0.0000 C   0  0  0  0  0  0  0  0  0  0  0  0
   -0.9047   -2.2259    0.0000 C   0  0  0  0  0  0  0  0  0  0  0  0
   -0.2076   -3.5541    0.0000 C   0  0  0  0  0  0  0  0  0  0  0  0
    1.0269   -4.4062    0.0000 C   0  0  0  0  0  0  0  0  0  0  0  0
    2.5159   -4.5870    0.0000 C   0  0  0  0  0  0  0  0  0  0  0  0
    3.9185   -4.0551    0.0000 C   0  0  0  0  0  0  0  0  0  0  0  0
    4.9131   -2.9323    0.0000 C   0  0  0  0  0  0  0  0  0  0  0  0
    5.2721   -1.4759    0.0000 C   0  0  0  0  0  0  0  0  0  0  0  0
    4.9131   -0.0195    0.0000 C   0  0  0  0  0  0  0  0  0  0  0  0
    3.9185    1.1033    0.0000 C   0  0  0  0  0  0  0  0  0  0  0  0
    4.7706    2.3378    0.0000 C   0  0  0  0  0  0  0  0  0  0  0  0
    4.1275    3.6930    0.0000 C   0  0  0  0  0  0  0  0  0  0  0  0
    4.9796    4.9274    0.0000 C   0  0  0  0  0  0  0  0  0  0  0  0
    3.5865    5.4835    0.0000 C   0  0  0  0  0  0  0  0  0  0  0  0
    5.2117    6.4094    0.0000 C   0  0  0  0  0  0  0  0  0  0  0  0
    6.5150    7.1519    0.0000 C   0  0  0  0  0  0  0  0  0  0  0  0
    7.9082    6.5958    0.0000 C   0  0  0  0  0  0  0  0  0  0  0  0
    8.3420    5.1600    0.0000 C   0  0  0  0  0  0  0  0  0  0  0  0
    9.1941    6.3944    0.0000 C   0  0  0  0  0  0  0  0  0  0  0  0
    9.8385    5.2634    0.0000 C   0  0  0  0  0  0  0  0  0  0  0  0
   10.3945    6.6566    0.0000 C   0  0  0  0  0  0  0  0  0  0  0  0
   11.8790    6.8716    0.0000 C   0  0  0  0  0  0  0  0  0  0  0  0
   12.4351    8.2647    0.0000 C   0  0  0  0  0  0  0  0  0  0  0  0
   11.6348    9.5335    0.0000 C   0  0  0  0  0  0  0  0  0  0  0  0
   12.5941   10.6866    0.0000 C   0  0  0  0  0  0  0  0  0  0  0  0
   13.9873   10.1305    0.0000 C   0  0  0  0  0  0  0  0  0  0  0  0
   13.8890    8.6338    0.0000 C   0  0  0  0  0  0  0  0  0  0  0  0
   10.8524    4.1580    0.0000 C   0  0  0  0  0  0  0  0  0  0  0  0
   10.6203    2.6761    0.0000 C   0  0  0  0  0  0  0  0  0  0  0  0
    9.3170    1.9336    0.0000 C   0  0  0  0  0  0  0  0  0  0  0  0
    7.9238    2.4896    0.0000 C   0  0  0  0  0  0  0  0  0  0  0  0
    7.4900    3.9255    0.0000 C   0  0  0  0  0  0  0  0  0  0  0  0
    6.6379    2.6910    0.0000 C   0  0  0  0  0  0  0  0  0  0  0  0
    5.9935    3.8220    0.0000 C   0  0  0  0  0  0  0  0  0  0  0  0
    5.4375    2.4289    0.0000 C   0  0  0  0  0  0  0  0  0  0  0  0
    6.3660    1.2508    0.0000 C   0  0  0  0  0  0  0  0  0  0  0  0
    7.8505    1.4658    0.0000 C   0  0  0  0  0  0  0  0  0  0  0  0
    8.7789    0.2877    0.0000 C   0  0  0  0  0  0  0  0  0  0  0  0
   10.2634    0.5027    0.0000 C   0  0  0  0  0  0  0  0  0  0  0  0
   10.8195    1.8958    0.0000 C   0  0  0  0  0  0  0  0  0  0  0  0
    9.8910    3.0739    0.0000 C   0  0  0  0  0  0  0  0  0  0  0  0
    8.0079    0.3790    0.0000 C   0  0  0  0  0  0  0  0  0  0  0  0
    8.2229   -1.1055    0.0000 C   0  0  0  0  0  0  0  0  0  0  0  0
    9.7074   -0.8904    0.0000 C   0  0  0  0  0  0  0  0  0  0  0  0
    7.2944    0.0726    0.0000 C   0  0  0  0  0  0  0  0  0  0  0  0
    8.4065    2.8589    0.0000 C   0  0  0  0  0  0  0  0  0  0  0  0
  1  2  1  0
  2  3  1  0
  3  4  1  0
  4  5  1  0
  5  6  1  0
  6  7  1  0
  6  8  1  0
  8  9  1  0
  8 10  1  0
 10 11  1  0
 11 12  1  0
 12 13  1  0
  4 14  1  0
 14 15  1  0
 14 16  1  0
 16 17  1  0
  2 18  1  0
 18 19  1  0
 19 20  1  0
 20 21  1  0
 21 22  1  0
 22 23  1  0
 23 24  1  0
 24 25  1  0
 25 26  1  0
 26 27  1  0
 27 28  1  0
 28 29  1  0
 29 30  1  0
 30 31  1  0
 31 32  1  0
 32 33  1  0
 32 34  1  0
 34 35  1  0
 35 36  1  0
 36 37  1  0
 37 38  1  0
 37 39  1  0
 39 40  1  0
 40 41  1  0
 41 42  1  0
 42 43  1  0
 43 44  1  0
 44 45  1  0
 45 46  1  0
 39 47  1  0
 47 48  1  0
 48 49  1  0
 49 50  1  0
 50 51  1  0
 51 52  1  0
 51 53  1  0
 53 54  1  0
 54 55  1  0
 55 56  1  0
 56 57  1  0
 57 58  1  0
 58 59  1  0
 59 60  1  0
 60 61  1  0
 61 62  1  0
 62 63  1  0
 62 64  1  0
 60 65  1  0
 29  2  1  0
 53 32  1  0
 64 56  1  0
 13  8  1  0
 51 37  1  0
 65 56  1  0
 46 42  1  0
 63 58  1  0
M  END
>  <Title>  (240) 
idAAPTgen6

$$$$

     RDKit          2D

 35 40  0  0  0  0  0  0  0  0999 V2000
   -1.8760    4.4687    0.0000 O   0  0  0  0  0  0  0  0  0  0  0  0
   -3.2463    3.8586    0.0000 C   0  0  0  0  0  0  0  0  0  0  0  0
   -3.4031    2.3668    0.0000 N   0  0  0  0  0  0  0  0  0  0  0  0
   -2.1895    1.4851    0.0000 C   0  0  0  0  0  0  0  0  0  0  0  0
   -0.8192    2.0952    0.0000 C   0  0  0  0  0  0  0  0  0  0  0  0
    0.3943    1.2135    0.0000 C   0  0  0  0  0  0  0  0  0  0  0  0
    1.2760    0.0000    0.0000 C   0  0  0  0  0  0  0  0  0  0  0  0
    0.3943   -1.2135    0.0000 C   0  0  0  0  0  0  0  0  0  0  0  0
   -1.0323   -0.7500    0.0000 C   0  0  0  0  0  0  0  0  0  0  0  0
   -2.3463   -0.0067    0.0000 C   0  0  0  0  0  0  0  0  0  0  0  0
   -1.0323    0.7500    0.0000 N   0  0  0  0  0  0  0  0  0  0  0  0
   -2.2458    1.6317    0.0000 C   0  0  0  0  0  0  0  0  0  0  0  0
   -2.0890    3.1235    0.0000 C   0  0  0  0  0  0  0  0  0  0  0  0
   -3.3025    4.0051    0.0000 C   0  0  0  0  0  0  0  0  0  0  0  0
   -3.1458    5.4969    0.0000 C   0  0  0  0  0  0  0  0  0  0  0  0
   -4.3593    6.3786    0.0000 C   0  0  0  0  0  0  0  0  0  0  0  0
   -5.7296    5.7685    0.0000 C   0  0  0  0  0  0  0  0  0  0  0  0
   -5.8864    4.2767    0.0000 C   0  0  0  0  0  0  0  0  0  0  0  0
   -4.6729    3.3950    0.0000 N   0  0  0  0  0  0  0  0  0  0  0  0
   -4.4598    4.7402    0.0000 C   0  0  0  0  0  0  0  0  0  0  0  0
   -4.3030    6.2320    0.0000 C   0  0  0  0  0  0  0  0  0  0  0  0
   -5.5165    7.1137    0.0000 C   0  0  0  0  0  0  0  0  0  0  0  0
   -6.9431    7.5772    0.0000 C   0  0  0  0  0  0  0  0  0  0  0  0
   -7.8248    6.3637    0.0000 C   0  0  0  0  0  0  0  0  0  0  0  0
   -6.9431    5.1502    0.0000 C   0  0  0  0  0  0  0  0  0  0  0  0
   -5.8301    4.1301    0.0000 C   0  0  0  0  0  0  0  0  0  0  0  0
   -5.5165    5.6137    0.0000 N   0  0  0  0  0  0  0  0  0  0  0  0
   -4.3030    4.7320    0.0000 C   0  0  0  0  0  0  0  0  0  0  0  0
   -4.4598    3.2402    0.0000 C   0  0  0  0  0  0  0  0  0  0  0  0
   -3.2463    2.3586    0.0000 C   0  0  0  0  0  0  0  0  0  0  0  0
   -3.4031    0.8668    0.0000 C   0  0  0  0  0  0  0  0  0  0  0  0
   -2.1895   -0.0149    0.0000 C   0  0  0  0  0  0  0  0  0  0  0  0
   -0.8192    0.5952    0.0000 C   0  0  0  0  0  0  0  0  0  0  0  0
   -0.6624    2.0870    0.0000 C   0  0  0  0  0  0  0  0  0  0  0  0
   -1.8760    2.9687    0.0000 C   0  0  0  0  0  0  0  0  0  0  0  0
  1  2  2  0
  2  3  1  0
  3  4  1  0
  4  5  1  0
  5  6  1  0
  6  7  1  0
  7  8  1  0
  8  9  1  0
  9 10  1  0
  9 11  1  0
 11 12  1  0
 12 13  1  0
 13 14  1  0
 14 15  2  0
 15 16  1  0
 16 17  2  0
 17 18  1  0
 18 19  2  0
  2 20  1  0
 20 21  1  0
 21 22  1  0
 22 23  1  0
 23 24  1  0
 24 25  1  0
 25 26  1  0
 25 27  1  0
 27 28  1  0
 28 29  1  0
 29 30  1  0
 30 31  2  0
 31 32  1  0
 32 33  2  0
 33 34  1  0
 34 35  2  0
 10  4  1  0
 19 14  1  0
 26 20  1  0
 35 30  1  0
 11  6  1  0
 27 22  1  0
M  END
>  <Title>  (241) 
idAAPUgen6

$$$$

     RDKit          2D

 64 70  0  0  0  0  0  0  0  0999 V2000
   -1.9357    7.4697    0.0000 C   0  0  0  0  0  0  0  0  0  0  0  0
   -2.7242    6.1936    0.0000 C   0  0  0  0  0  0  0  0  0  0  0  0
   -4.0269    6.9373    0.0000 C   0  0  0  0  0  0  0  0  0  0  0  0
   -2.0134    4.8727    0.0000 N   0  0  0  0  0  0  0  0  0  0  0  0
   -2.8019    3.5967    0.0000 C   0  0  0  0  0  0  0  0  0  0  0  0
   -4.2675    3.2775    0.0000 O   0  0  0  0  0  0  0  0  0  0  0  0
   -2.0911    2.2758    0.0000 C   0  0  0  0  0  0  0  0  0  0  0  0
   -0.5926    2.3431    0.0000 C   0  0  0  0  0  0  0  0  0  0  0  0
    0.3943    1.2135    0.0000 C   0  0  0  0  0  0  0  0  0  0  0  0
    1.2760    0.0000    0.0000 C   0  0  0  0  0  0  0  0  0  0  0  0
    0.3943   -1.2135    0.0000 C   0  0  0  0  0  0  0  0  0  0  0  0
   -1.0323   -0.7500    0.0000 C   0  0  0  0  0  0  0  0  0  0  0  0
   -2.5737   -0.3836    0.0000 C   0  0  0  0  0  0  0  0  0  0  0  0
   -2.9728    1.0623    0.0000 C   0  0  0  0  0  0  0  0  0  0  0  0
   -4.4487    1.3301    0.0000 C   0  0  0  0  0  0  0  0  0  0  0  0
   -5.2813    2.5778    0.0000 O   0  0  0  0  0  0  0  0  0  0  0  0
   -5.4186    0.1859    0.0000 N   0  0  0  0  0  0  0  0  0  0  0  0
   -6.8945    0.4537    0.0000 C   0  0  0  0  0  0  0  0  0  0  0  0
   -7.8644   -0.6905    0.0000 C   0  0  0  0  0  0  0  0  0  0  0  0
   -9.3403   -0.4227    0.0000 C   0  0  0  0  0  0  0  0  0  0  0  0
   -9.8463    0.9894    0.0000 C   0  0  0  0  0  0  0  0  0  0  0  0
  -11.3221    1.2572    0.0000 C   0  0  0  0  0  0  0  0  0  0  0  0
  -12.2920    0.1130    0.0000 C   0  0  0  0  0  0  0  0  0  0  0  0
  -11.7861   -1.2991    0.0000 C   0  0  0  0  0  0  0  0  0  0  0  0
  -10.3102   -1.5669    0.0000 C   0  0  0  0  0  0  0  0  0  0  0  0
   -7.4005    1.8658    0.0000 C   0  0  0  0  0  0  0  0  0  0  0  0
   -6.1825    2.7414    0.0000 O   0  0  0  0  0  0  0  0  0  0  0  0
   -8.8764    2.1337    0.0000 O   0  0  0  0  0  0  0  0  0  0  0  0
   -1.0323    0.7500    0.0000 C   0  0  0  0  0  0  0  0  0  0  0  0
   -2.2458    1.6317    0.0000 C   0  0  0  0  0  0  0  0  0  0  0  0
   -2.0890    3.1235    0.0000 C   0  0  0  0  0  0  0  0  0  0  0  0
   -0.7187    3.7336    0.0000 O   0  0  0  0  0  0  0  0  0  0  0  0
   -3.3025    4.0051    0.0000 C   0  0  0  0  0  0  0  0  0  0  0  0
   -3.1458    5.4969    0.0000 C   0  0  0  0  0  0  0  0  0  0  0  0
   -4.3593    6.3786    0.0000 C   0  0  0  0  0  0  0  0  0  0  0  0
   -4.2025    7.8704    0.0000 C   0  0  0  0  0  0  0  0  0  0  0  0
   -5.4160    8.7521    0.0000 C   0  0  0  0  0  0  0  0  0  0  0  0
   -6.7863    8.1420    0.0000 C   0  0  0  0  0  0  0  0  0  0  0  0
   -6.9431    6.6502    0.0000 C   0  0  0  0  0  0  0  0  0  0  0  0
   -5.7296    5.7685    0.0000 C   0  0  0  0  0  0  0  0  0  0  0  0
   -4.6729    3.3950    0.0000 N   0  0  0  0  0  0  0  0  0  0  0  0
   -5.8864    4.2767    0.0000 C   0  0  0  0  0  0  0  0  0  0  0  0
   -6.0952    5.7621    0.0000 O   0  0  0  0  0  0  0  0  0  0  0  0
   -7.2567    3.6666    0.0000 C   0  0  0  0  0  0  0  0  0  0  0  0
   -7.4135    2.1748    0.0000 C   0  0  0  0  0  0  0  0  0  0  0  0
   -6.0432    2.7849    0.0000 C   0  0  0  0  0  0  0  0  0  0  0  0
   -5.8864    4.2767    0.0000 C   0  0  0  0  0  0  0  0  0  0  0  0
   -4.5161    4.8868    0.0000 N   0  0  0  0  0  0  0  0  0  0  0  0
   -4.3593    6.3786    0.0000 C   0  0  0  0  0  0  0  0  0  0  0  0
   -5.5728    7.2603    0.0000 O   0  0  0  0  0  0  0  0  0  0  0  0
   -2.9890    6.9887    0.0000 C   0  0  0  0  0  0  0  0  0  0  0  0
   -2.8322    8.4805    0.0000 C   0  0  0  0  0  0  0  0  0  0  0  0
   -1.4618    9.0906    0.0000 C   0  0  0  0  0  0  0  0  0  0  0  0
   -0.2483    8.2089    0.0000 C   0  0  0  0  0  0  0  0  0  0  0  0
    1.1220    8.8190    0.0000 C   0  0  0  0  0  0  0  0  0  0  0  0
    1.2788   10.3108    0.0000 C   0  0  0  0  0  0  0  0  0  0  0  0
    0.0653   11.1925    0.0000 C   0  0  0  0  0  0  0  0  0  0  0  0
   -1.3051   10.5824    0.0000 C   0  0  0  0  0  0  0  0  0  0  0  0
   -1.7754    6.1070    0.0000 C   0  0  0  0  0  0  0  0  0  0  0  0
   -1.5666    4.6216    0.0000 O   0  0  0  0  0  0  0  0  0  0  0  0
   -0.4051    6.7171    0.0000 O   0  0  0  0  0  0  0  0  0  0  0  0
   -7.0999    5.1584    0.0000 C   0  0  0  0  0  0  0  0  0  0  0  0
   -8.4702    4.5483    0.0000 C   0  0  0  0  0  0  0  0  0  0  0  0
   -8.6270    3.0565    0.0000 C   0  0  0  0  0  0  0  0  0  0  0  0
  1  2  1  0
  2  3  1  0
  2  4  1  0
  4  5  1  0
  5  6  2  0
  5  7  1  0
  7  8  1  0
  8  9  1  0
  9 10  1  0
 10 11  1  0
 11 12  1  0
 12 13  1  0
 13 14  1  0
 14 15  1  0
 15 16  2  0
 15 17  1  0
 17 18  1  0
 18 19  1  0
 19 20  1  0
 20 21  2  0
 21 22  1  0
 22 23  2  0
 23 24  1  0
 24 25  2  0
 18 26  1  0
 26 27  2  0
 26 28  1  0
 12 29  1  0
 29 30  1  0
 30 31  1  0
 31 32  1  0
 31 33  1  0
 33 34  1  0
 34 35  1  0
 35 36  2  0
 36 37  1  0
 37 38  2  0
 38 39  1  0
 39 40  2  0
 33 41  1  0
 41 42  1  0
 42 43  2  0
 42 44  1  0
 44 45  1  0
 45 46  1  0
 46 47  1  0
 47 48  1  0
 48 49  1  0
 49 50  2  0
 49 51  1  0
 51 52  1  0
 52 53  1  0
 53 54  2  0
 54 55  1  0
 55 56  2  0
 56 57  1  0
 57 58  2  0
 51 59  1  0
 59 60  2  0
 59 61  1  0
 47 62  1  0
 62 63  1  0
 63 64  1  0
 14  7  1  0
 25 20  1  0
 40 35  1  0
 63 44  1  0
 29  9  1  0
 64 45  1  0
 58 53  1  0
M  END
>  <Title>  (242) 
idAAPVgen6

$$$$

     RDKit          2D

 60 67  0  0  0  0  0  0  0  0999 V2000
   -0.1480   -1.0175    0.0000 O   0  0  0  0  0  0  0  0  0  0  0  0
   -0.3047    0.4743    0.0000 C   0  0  0  0  0  0  0  0  0  0  0  0
    0.9088    1.3560    0.0000 O   0  0  0  0  0  0  0  0  0  0  0  0
   -1.6751    1.0844    0.0000 C   0  0  0  0  0  0  0  0  0  0  0  0
   -1.8319    2.5762    0.0000 C   0  0  0  0  0  0  0  0  0  0  0  0
   -0.6183    3.4579    0.0000 C   0  0  0  0  0  0  0  0  0  0  0  0
    0.7520    2.8478    0.0000 C   0  0  0  0  0  0  0  0  0  0  0  0
    1.9655    3.7294    0.0000 C   0  0  0  0  0  0  0  0  0  0  0  0
    1.8087    5.2212    0.0000 C   0  0  0  0  0  0  0  0  0  0  0  0
    0.4384    5.8313    0.0000 C   0  0  0  0  0  0  0  0  0  0  0  0
   -0.7751    4.9496    0.0000 C   0  0  0  0  0  0  0  0  0  0  0  0
   -2.8886    0.2027    0.0000 N   0  0  0  0  0  0  0  0  0  0  0  0
   -2.7318   -1.2891    0.0000 C   0  0  0  0  0  0  0  0  0  0  0  0
   -1.3615   -1.8992    0.0000 O   0  0  0  0  0  0  0  0  0  0  0  0
   -3.9453   -2.1707    0.0000 C   0  0  0  0  0  0  0  0  0  0  0  0
   -5.3156   -1.5606    0.0000 C   0  0  0  0  0  0  0  0  0  0  0  0
   -5.4724   -0.0689    0.0000 C   0  0  0  0  0  0  0  0  0  0  0  0
   -4.2589    0.8128    0.0000 C   0  0  0  0  0  0  0  0  0  0  0  0
   -4.4157    2.3046    0.0000 C   0  0  0  0  0  0  0  0  0  0  0  0
   -5.7860    2.9147    0.0000 C   0  0  0  0  0  0  0  0  0  0  0  0
   -6.9995    2.0330    0.0000 C   0  0  0  0  0  0  0  0  0  0  0  0
   -6.8427    0.5413    0.0000 C   0  0  0  0  0  0  0  0  0  0  0  0
   -3.7885   -3.6625    0.0000 N   0  0  0  0  0  0  0  0  0  0  0  0
   -2.4182   -4.2726    0.0000 C   0  0  0  0  0  0  0  0  0  0  0  0
   -1.2047   -3.3910    0.0000 O   0  0  0  0  0  0  0  0  0  0  0  0
   -2.2614   -5.7644    0.0000 C   0  0  0  0  0  0  0  0  0  0  0  0
   -3.4749   -6.6461    0.0000 C   0  0  0  0  0  0  0  0  0  0  0  0
   -4.8453   -6.0360    0.0000 C   0  0  0  0  0  0  0  0  0  0  0  0
   -5.0021   -4.5442    0.0000 C   0  0  0  0  0  0  0  0  0  0  0  0
   -6.3724   -3.9341    0.0000 C   0  0  0  0  0  0  0  0  0  0  0  0
   -7.5859   -4.8158    0.0000 C   0  0  0  0  0  0  0  0  0  0  0  0
   -7.4291   -6.3076    0.0000 C   0  0  0  0  0  0  0  0  0  0  0  0
   -6.0588   -6.9177    0.0000 C   0  0  0  0  0  0  0  0  0  0  0  0
   -0.8911   -6.3745    0.0000 N   0  0  0  0  0  0  0  0  0  0  0  0
    0.3224   -5.4928    0.0000 C   0  0  0  0  0  0  0  0  0  0  0  0
    0.1656   -4.0011    0.0000 O   0  0  0  0  0  0  0  0  0  0  0  0
    1.6927   -6.1029    0.0000 C   0  0  0  0  0  0  0  0  0  0  0  0
    2.9918   -5.3529    0.0000 C   0  0  0  0  0  0  0  0  0  0  0  0
    1.5000   -5.1962    0.0000 C   0  0  0  0  0  0  0  0  0  0  0  0
    0.8899   -6.5665    0.0000 C   0  0  0  0  0  0  0  0  0  0  0  0
   -0.5773   -6.8783    0.0000 C   0  0  0  0  0  0  0  0  0  0  0  0
   -1.8209   -6.0396    0.0000 O   0  0  0  0  0  0  0  0  0  0  0  0
   -1.0409   -8.3049    0.0000 N   0  0  0  0  0  0  0  0  0  0  0  0
   -2.5081   -8.6168    0.0000 C   0  0  0  0  0  0  0  0  0  0  0  0
   -2.9716  -10.0434    0.0000 C   0  0  0  0  0  0  0  0  0  0  0  0
   -4.4388  -10.3552    0.0000 C   0  0  0  0  0  0  0  0  0  0  0  0
   -5.4425   -9.2405    0.0000 C   0  0  0  0  0  0  0  0  0  0  0  0
   -4.9790   -7.8139    0.0000 C   0  0  0  0  0  0  0  0  0  0  0  0
   -3.5118   -7.5021    0.0000 C   0  0  0  0  0  0  0  0  0  0  0  0
   -3.9753   -8.9287    0.0000 N   0  0  0  0  0  0  0  0  0  0  0  0
   -2.5081   -8.6168    0.0000 C   0  0  0  0  0  0  0  0  0  0  0  0
   -2.0445   -7.1902    0.0000 C   0  0  0  0  0  0  0  0  0  0  0  0
   -0.5773   -6.8783    0.0000 C   0  0  0  0  0  0  0  0  0  0  0  0
   -0.1138   -5.4518    0.0000 C   0  0  0  0  0  0  0  0  0  0  0  0
    1.3534   -5.1399    0.0000 C   0  0  0  0  0  0  0  0  0  0  0  0
    2.3571   -6.2546    0.0000 C   0  0  0  0  0  0  0  0  0  0  0  0
    1.8936   -7.6812    0.0000 C   0  0  0  0  0  0  0  0  0  0  0  0
    0.4264   -7.9931    0.0000 C   0  0  0  0  0  0  0  0  0  0  0  0
    2.0046   -7.5702    0.0000 C   0  0  0  0  0  0  0  0  0  0  0  0
    3.3037   -6.8202    0.0000 C   0  0  0  0  0  0  0  0  0  0  0  0
  1  2  2  0
  2  3  1  0
  2  4  1  0
  4  5  1  0
  5  6  1  0
  6  7  2  0
  7  8  1  0
  8  9  2  0
  9 10  1  0
 10 11  2  0
  4 12  1  0
 12 13  1  0
 13 14  2  0
 13 15  1  0
 15 16  1  0
 16 17  1  0
 17 18  2  0
 18 19  1  0
 19 20  2  0
 20 21  1  0
 21 22  2  0
 15 23  1  0
 23 24  1  0
 24 25  2  0
 24 26  1  0
 26 27  1  0
 27 28  1  0
 28 29  2  0
 29 30  1  0
 30 31  2  0
 31 32  1  0
 32 33  2  0
 26 34  1  0
 34 35  1  0
 35 36  2  0
 35 37  1  0
 37 38  1  0
 38 39  1  0
 39 40  1  0
 40 41  1  0
 41 42  2  0
 41 43  1  0
 43 44  1  0
 44 45  1  0
 45 46  1  0
 46 47  1  0
 47 48  1  0
 48 49  1  0
 48 50  1  0
 50 51  1  0
 51 52  1  0
 52 53  1  0
 53 54  2  0
 54 55  1  0
 55 56  2  0
 56 57  1  0
 57 58  2  0
 40 59  1  0
 59 60  1  0
 11  6  1  0
 22 17  1  0
 33 28  1  0
 59 37  1  0
 60 38  1  0
 49 44  1  0
 58 53  1  0
 50 46  1  0
M  END
>  <Title>  (243) 
idAAPWgen6

$$$$

     RDKit          2D

 57 62  0  0  0  0  0  0  0  0999 V2000
    2.9888   -2.4152    0.0000 O   0  0  0  0  0  0  0  0  0  0  0  0
    1.5000   -2.5981    0.0000 C   0  0  0  0  0  0  0  0  0  0  0  0
    0.7500   -3.8971    0.0000 N   0  0  0  0  0  0  0  0  0  0  0  0
    1.5000   -5.1962    0.0000 C   0  0  0  0  0  0  0  0  0  0  0  0
    0.7500   -6.4952    0.0000 C   0  0  0  0  0  0  0  0  0  0  0  0
    1.5000   -7.7942    0.0000 C   0  0  0  0  0  0  0  0  0  0  0  0
    0.7500   -9.0933    0.0000 C   0  0  0  0  0  0  0  0  0  0  0  0
    1.5000  -10.3923    0.0000 C   0  0  0  0  0  0  0  0  0  0  0  0
    3.0000  -10.3923    0.0000 C   0  0  0  0  0  0  0  0  0  0  0  0
    3.7500   -9.0933    0.0000 C   0  0  0  0  0  0  0  0  0  0  0  0
    3.0000   -7.7942    0.0000 C   0  0  0  0  0  0  0  0  0  0  0  0
    3.0000   -5.1962    0.0000 C   0  0  0  0  0  0  0  0  0  0  0  0
    3.7500   -3.8971    0.0000 O   0  0  0  0  0  0  0  0  0  0  0  0
    3.7500   -6.4952    0.0000 N   0  0  0  0  0  0  0  0  0  0  0  0
    5.2500   -6.4952    0.0000 C   0  0  0  0  0  0  0  0  0  0  0  0
    6.0000   -7.7942    0.0000 C   0  0  0  0  0  0  0  0  0  0  0  0
    7.5000   -7.7942    0.0000 C   0  0  0  0  0  0  0  0  0  0  0  0
    8.2500   -9.0933    0.0000 C   0  0  0  0  0  0  0  0  0  0  0  0
    9.7500   -9.0933    0.0000 C   0  0  0  0  0  0  0  0  0  0  0  0
   10.5000   -7.7942    0.0000 C   0  0  0  0  0  0  0  0  0  0  0  0
    9.7500   -6.4952    0.0000 C   0  0  0  0  0  0  0  0  0  0  0  0
    8.2500   -6.4952    0.0000 C   0  0  0  0  0  0  0  0  0  0  0  0
    6.0000   -5.1962    0.0000 C   0  0  0  0  0  0  0  0  0  0  0  0
    5.5866   -3.7542    0.0000 O   0  0  0  0  0  0  0  0  0  0  0  0
    7.4554   -4.8332    0.0000 O   0  0  0  0  0  0  0  0  0  0  0  0
    0.7500   -1.2990    0.0000 C   0  0  0  0  0  0  0  0  0  0  0  0
    1.5000    0.0000    0.0000 C   0  0  0  0  0  0  0  0  0  0  0  0
    0.7500    1.2990    0.0000 C   0  0  0  0  0  0  0  0  0  0  0  0
   -0.7500    1.2990    0.0000 C   0  0  0  0  0  0  0  0  0  0  0  0
   -1.5000    0.0000    0.0000 C   0  0  0  0  0  0  0  0  0  0  0  0
   -0.7500   -1.2990    0.0000 C   0  0  0  0  0  0  0  0  0  0  0  0
   -0.0000   -0.0000    0.0000 C   0  0  0  0  0  0  0  0  0  0  0  0
    0.7500   -1.2990    0.0000 C   0  0  0  0  0  0  0  0  0  0  0  0
    2.2500   -1.2990    0.0000 O   0  0  0  0  0  0  0  0  0  0  0  0
   -0.0000   -2.5981    0.0000 N   0  0  0  0  0  0  0  0  0  0  0  0
    0.7500   -3.8971    0.0000 C   0  0  0  0  0  0  0  0  0  0  0  0
   -0.0000   -5.1962    0.0000 C   0  0  0  0  0  0  0  0  0  0  0  0
    0.7500   -6.4952    0.0000 C   0  0  0  0  0  0  0  0  0  0  0  0
   -0.0000   -7.7942    0.0000 C   0  0  0  0  0  0  0  0  0  0  0  0
    0.7500   -9.0933    0.0000 C   0  0  0  0  0  0  0  0  0  0  0  0
    2.2500   -9.0933    0.0000 C   0  0  0  0  0  0  0  0  0  0  0  0
    3.0000   -7.7942    0.0000 C   0  0  0  0  0  0  0  0  0  0  0  0
    2.2500   -6.4952    0.0000 C   0  0  0  0  0  0  0  0  0  0  0  0
    2.2500   -3.8971    0.0000 C   0  0  0  0  0  0  0  0  0  0  0  0
    3.1528   -2.6992    0.0000 O   0  0  0  0  0  0  0  0  0  0  0  0
    3.0000   -5.1962    0.0000 N   0  0  0  0  0  0  0  0  0  0  0  0
    4.5000   -5.1962    0.0000 C   0  0  0  0  0  0  0  0  0  0  0  0
    5.2500   -6.4952    0.0000 C   0  0  0  0  0  0  0  0  0  0  0  0
    6.7500   -6.4952    0.0000 C   0  0  0  0  0  0  0  0  0  0  0  0
    7.5000   -7.7942    0.0000 C   0  0  0  0  0  0  0  0  0  0  0  0
    9.0000   -7.7942    0.0000 C   0  0  0  0  0  0  0  0  0  0  0  0
    9.7500   -6.4952    0.0000 C   0  0  0  0  0  0  0  0  0  0  0  0
    9.0000   -5.1962    0.0000 C   0  0  0  0  0  0  0  0  0  0  0  0
    7.5000   -5.1962    0.0000 C   0  0  0  0  0  0  0  0  0  0  0  0
    5.2500   -3.8971    0.0000 C   0  0  0  0  0  0  0  0  0  0  0  0
    4.5000   -2.5981    0.0000 O   0  0  0  0  0  0  0  0  0  0  0  0
    6.7500   -3.8971    0.0000 O   0  0  0  0  0  0  0  0  0  0  0  0
  1  2  2  0
  2  3  1  0
  3  4  1  0
  4  5  1  0
  5  6  1  0
  6  7  2  0
  7  8  1  0
  8  9  2  0
  9 10  1  0
 10 11  2  0
  4 12  1  0
 12 13  2  0
 12 14  1  0
 14 15  1  0
 15 16  1  0
 16 17  1  0
 17 18  2  0
 18 19  1  0
 19 20  2  0
 20 21  1  0
 21 22  2  0
 15 23  1  0
 23 24  2  0
 23 25  1  0
  2 26  1  0
 26 27  1  0
 27 28  1  0
 28 29  1  0
 29 30  1  0
 30 31  1  0
 30 32  1  0
 32 33  1  0
 33 34  2  0
 33 35  1  0
 35 36  1  0
 36 37  1  0
 37 38  1  0
 38 39  2  0
 39 40  1  0
 40 41  2  0
 41 42  1  0
 42 43  2  0
 36 44  1  0
 44 45  2  0
 44 46  1  0
 46 47  1  0
 47 48  1  0
 48 49  1  0
 49 50  2  0
 50 51  1  0
 51 52  2  0
 52 53  1  0
 53 54  2  0
 47 55  1  0
 55 56  2  0
 55 57  1  0
 11  6  1  0
 22 17  1  0
 31 26  1  0
 43 38  1  0
 54 49  1  0
 32 28  1  0
M  END
>  <Title>  (244) 
idAAPXgen6

$$$$

     RDKit          2D

 32 37  0  0  0  0  0  0  0  0999 V2000
    2.8482    0.6575    0.0000 C   0  0  0  0  0  0  0  0  0  0  0  0
    1.5000    0.0000    0.0000 C   0  0  0  0  0  0  0  0  0  0  0  0
    2.6491   -0.9642    0.0000 C   0  0  0  0  0  0  0  0  0  0  0  0
    0.7500   -1.2990    0.0000 C   0  0  0  0  0  0  0  0  0  0  0  0
   -0.7500   -1.2990    0.0000 C   0  0  0  0  0  0  0  0  0  0  0  0
   -1.5000    0.0000    0.0000 C   0  0  0  0  0  0  0  0  0  0  0  0
   -0.7500    1.2990    0.0000 C   0  0  0  0  0  0  0  0  0  0  0  0
   -2.2500    1.2990    0.0000 C   0  0  0  0  0  0  0  0  0  0  0  0
   -1.5000    2.5981    0.0000 C   0  0  0  0  0  0  0  0  0  0  0  0
   -3.0000    2.5981    0.0000 C   0  0  0  0  0  0  0  0  0  0  0  0
   -3.7500    3.8971    0.0000 C   0  0  0  0  0  0  0  0  0  0  0  0
   -5.2500    3.8971    0.0000 C   0  0  0  0  0  0  0  0  0  0  0  0
   -6.1317    2.6836    0.0000 C   0  0  0  0  0  0  0  0  0  0  0  0
   -7.5583    3.1471    0.0000 C   0  0  0  0  0  0  0  0  0  0  0  0
   -7.5583    4.6471    0.0000 C   0  0  0  0  0  0  0  0  0  0  0  0
   -6.1317    5.1106    0.0000 C   0  0  0  0  0  0  0  0  0  0  0  0
   -0.7500    3.8971    0.0000 C   0  0  0  0  0  0  0  0  0  0  0  0
    0.7500    3.8971    0.0000 C   0  0  0  0  0  0  0  0  0  0  0  0
    1.5000    2.5981    0.0000 C   0  0  0  0  0  0  0  0  0  0  0  0
    0.7500    1.2990    0.0000 C   0  0  0  0  0  0  0  0  0  0  0  0
    2.2500    1.2990    0.0000 C   0  0  0  0  0  0  0  0  0  0  0  0
    3.0000    2.5981    0.0000 C   0  0  0  0  0  0  0  0  0  0  0  0
    4.5000    2.5981    0.0000 C   0  0  0  0  0  0  0  0  0  0  0  0
    5.2500    3.8971    0.0000 C   0  0  0  0  0  0  0  0  0  0  0  0
    6.7500    3.8971    0.0000 C   0  0  0  0  0  0  0  0  0  0  0  0
    7.5000    2.5981    0.0000 C   0  0  0  0  0  0  0  0  0  0  0  0
    6.7500    1.2990    0.0000 C   0  0  0  0  0  0  0  0  0  0  0  0
    4.5000    3.6962    0.0000 C   0  0  0  0  0  0  0  0  0  0  0  0
    4.5000    5.1962    0.0000 C   0  0  0  0  0  0  0  0  0  0  0  0
    6.0000    5.1962    0.0000 C   0  0  0  0  0  0  0  0  0  0  0  0
    3.7500    3.8971    0.0000 C   0  0  0  0  0  0  0  0  0  0  0  0
    5.2500    1.2990    0.0000 C   0  0  0  0  0  0  0  0  0  0  0  0
  1  2  1  0
  2  3  1  0
  2  4  1  0
  4  5  1  0
  5  6  1  0
  6  7  1  0
  7  8  1  0
  7  9  1  0
  9 10  1  0
 10 11  1  0
 11 12  1  0
 12 13  1  0
 13 14  1  0
 14 15  1  0
 15 16  1  0
  9 17  1  0
 17 18  1  0
 18 19  1  0
 19 20  1  0
 20 21  1  0
 21 22  1  0
 22 23  1  0
 23 24  1  0
 24 25  1  0
 25 26  1  0
 26 27  1  0
 27 28  1  0
 28 29  1  0
 29 30  1  0
 29 31  1  0
 27 32  1  0
 20  2  1  0
 31 23  1  0
 20  7  1  0
 32 23  1  0
 16 12  1  0
 30 25  1  0
M  END
>  <Title>  (245) 
idAAPYgen6

$$$$

     RDKit          2D

 38 42  0  0  0  0  0  0  0  0999 V2000
   -0.9709   -6.6227    0.0000 C   0  0  0  0  0  0  0  0  0  0  0  0
    0.4963   -6.3109    0.0000 C   0  0  0  0  0  0  0  0  0  0  0  0
   -0.2537   -5.0118    0.0000 C   0  0  0  0  0  0  0  0  0  0  0  0
   -1.7537   -5.0118    0.0000 C   0  0  0  0  0  0  0  0  0  0  0  0
   -2.5037   -3.7128    0.0000 C   0  0  0  0  0  0  0  0  0  0  0  0
   -4.0037   -3.7128    0.0000 C   0  0  0  0  0  0  0  0  0  0  0  0
   -4.7537   -5.0118    0.0000 O   0  0  0  0  0  0  0  0  0  0  0  0
   -4.7537   -2.4138    0.0000 C   0  0  0  0  0  0  0  0  0  0  0  0
   -3.3834   -1.8037    0.0000 O   0  0  0  0  0  0  0  0  0  0  0  0
   -5.2172   -0.9872    0.0000 C   0  0  0  0  0  0  0  0  0  0  0  0
   -6.7172   -0.9872    0.0000 C   0  0  0  0  0  0  0  0  0  0  0  0
   -7.1807   -2.4138    0.0000 C   0  0  0  0  0  0  0  0  0  0  0  0
   -5.9672   -3.2954    0.0000 C   0  0  0  0  0  0  0  0  0  0  0  0
   -2.5037   -6.3109    0.0000 C   0  0  0  0  0  0  0  0  0  0  0  0
   -1.7537   -7.6099    0.0000 O   0  0  0  0  0  0  0  0  0  0  0  0
   -4.0037   -6.3109    0.0000 C   0  0  0  0  0  0  0  0  0  0  0  0
   -4.7537   -7.6099    0.0000 O   0  0  0  0  0  0  0  0  0  0  0  0
    0.3395   -7.8027    0.0000 C   0  0  0  0  0  0  0  0  0  0  0  0
    1.0895   -9.1017    0.0000 C   0  0  0  0  0  0  0  0  0  0  0  0
    2.4598   -9.7118    0.0000 C   0  0  0  0  0  0  0  0  0  0  0  0
    3.9271   -9.3999    0.0000 C   0  0  0  0  0  0  0  0  0  0  0  0
    4.9307   -8.2852    0.0000 C   0  0  0  0  0  0  0  0  0  0  0  0
    5.0875   -6.7934    0.0000 C   0  0  0  0  0  0  0  0  0  0  0  0
    4.3375   -5.4944    0.0000 C   0  0  0  0  0  0  0  0  0  0  0  0
    2.9672   -4.8843    0.0000 C   0  0  0  0  0  0  0  0  0  0  0  0
    1.5000   -5.1962    0.0000 C   0  0  0  0  0  0  0  0  0  0  0  0
    0.7500   -3.8971    0.0000 C   0  0  0  0  0  0  0  0  0  0  0  0
    1.5000   -2.5981    0.0000 C   0  0  0  0  0  0  0  0  0  0  0  0
    0.7500   -1.2990    0.0000 C   0  0  0  0  0  0  0  0  0  0  0  0
    1.5000    0.0000    0.0000 C   0  0  0  0  0  0  0  0  0  0  0  0
    0.7500    1.2990    0.0000 C   0  0  0  0  0  0  0  0  0  0  0  0
   -0.7500    1.2990    0.0000 C   0  0  0  0  0  0  0  0  0  0  0  0
   -1.5000    0.0000    0.0000 C   0  0  0  0  0  0  0  0  0  0  0  0
    1.7010   -0.7500    0.0000 C   0  0  0  0  0  0  0  0  0  0  0  0
    3.0000   -0.0000    0.0000 C   0  0  0  0  0  0  0  0  0  0  0  0
    2.2500    1.2990    0.0000 C   0  0  0  0  0  0  0  0  0  0  0  0
    2.2500   -1.2990    0.0000 C   0  0  0  0  0  0  0  0  0  0  0  0
   -0.7500   -1.2990    0.0000 C   0  0  0  0  0  0  0  0  0  0  0  0
  1  2  1  0
  2  3  1  0
  3  4  1  0
  4  5  1  0
  5  6  1  0
  6  7  1  0
  6  8  1  0
  8  9  1  0
  8 10  1  0
 10 11  1  0
 11 12  1  0
 12 13  1  0
  4 14  1  0
 14 15  1  0
 14 16  1  0
 16 17  1  0
  2 18  1  0
 18 19  1  0
 19 20  1  0
 20 21  1  0
 21 22  1  0
 22 23  1  0
 23 24  1  0
 24 25  1  0
 25 26  1  0
 26 27  1  0
 27 28  1  0
 28 29  1  0
 29 30  1  0
 30 31  1  0
 31 32  1  0
 32 33  1  0
 33 34  1  0
 34 35  1  0
 35 36  1  0
 35 37  1  0
 33 38  1  0
 26  2  1  0
 37 29  1  0
 13  8  1  0
 38 29  1  0
 36 31  1  0
M  END
>  <Title>  (246) 
idAAPZgen6

$$$$

     RDKit          2D

 26 30  0  0  0  0  0  0  0  0999 V2000
    3.4598   -1.5000    0.0000 C   0  0  0  0  0  0  0  0  0  0  0  0
    3.4598    0.0000    0.0000 C   0  0  0  0  0  0  0  0  0  0  0  0
    3.4598    1.5000    0.0000 C   0  0  0  0  0  0  0  0  0  0  0  0
    4.9153   -0.3630    0.0000 C   0  0  0  0  0  0  0  0  0  0  0  0
    1.9598    0.0000    0.0000 C   0  0  0  0  0  0  0  0  0  0  0  0
    1.3858   -1.3858    0.0000 C   0  0  0  0  0  0  0  0  0  0  0  0
   -0.0000   -1.9598    0.0000 C   0  0  0  0  0  0  0  0  0  0  0  0
   -1.3858   -1.3858    0.0000 C   0  0  0  0  0  0  0  0  0  0  0  0
   -1.9598    0.0000    0.0000 C   0  0  0  0  0  0  0  0  0  0  0  0
   -1.3858    1.3858    0.0000 C   0  0  0  0  0  0  0  0  0  0  0  0
    0.0000    1.9598    0.0000 C   0  0  0  0  0  0  0  0  0  0  0  0
    1.3858    1.3858    0.0000 C   0  0  0  0  0  0  0  0  0  0  0  0
    0.5740    0.5740    0.0000 C   0  0  0  0  0  0  0  0  0  0  0  0
    2.0740    0.5740    0.0000 C   0  0  0  0  0  0  0  0  0  0  0  0
    2.8240    1.8731    0.0000 C   0  0  0  0  0  0  0  0  0  0  0  0
    4.3240    1.8731    0.0000 C   0  0  0  0  0  0  0  0  0  0  0  0
    5.0740    3.1721    0.0000 C   0  0  0  0  0  0  0  0  0  0  0  0
    6.5740    3.1721    0.0000 C   0  0  0  0  0  0  0  0  0  0  0  0
    7.3240    1.8731    0.0000 C   0  0  0  0  0  0  0  0  0  0  0  0
    6.5740    0.5740    0.0000 C   0  0  0  0  0  0  0  0  0  0  0  0
    4.3240    2.9711    0.0000 C   0  0  0  0  0  0  0  0  0  0  0  0
    4.3240    4.4711    0.0000 C   0  0  0  0  0  0  0  0  0  0  0  0
    5.8240    4.4711    0.0000 C   0  0  0  0  0  0  0  0  0  0  0  0
    3.5740    3.1721    0.0000 C   0  0  0  0  0  0  0  0  0  0  0  0
    5.0740    0.5740    0.0000 C   0  0  0  0  0  0  0  0  0  0  0  0
   -0.0000   -0.8118    0.0000 C   0  0  0  0  0  0  0  0  0  0  0  0
  1  2  1  0
  2  3  1  0
  2  4  1  0
  2  5  1  0
  5  6  1  0
  6  7  1  0
  7  8  1  0
  8  9  1  0
  9 10  1  0
 10 11  1  0
 11 12  1  0
 11 13  1  0
 13 14  1  0
 14 15  1  0
 15 16  1  0
 16 17  1  0
 17 18  1  0
 18 19  1  0
 19 20  1  0
 20 21  1  0
 21 22  1  0
 22 23  1  0
 22 24  1  0
 20 25  1  0
 13 26  1  0
 12  5  1  0
 24 16  1  0
 26  8  1  0
 25 16  1  0
 23 18  1  0
M  END
>  <Title>  (247) 
idAAQAgen6

$$$$

     RDKit          2D

 52 57  0  0  0  0  0  0  0  0999 V2000
    5.8939   -5.5249    0.0000 C   0  0  0  0  0  0  0  0  0  0  0  0
    5.4055   -4.1066    0.0000 C   0  0  0  0  0  0  0  0  0  0  0  0
    4.1065   -4.8566    0.0000 C   0  0  0  0  0  0  0  0  0  0  0  0
    4.1065   -6.3566    0.0000 C   0  0  0  0  0  0  0  0  0  0  0  0
    2.8075   -7.1066    0.0000 C   0  0  0  0  0  0  0  0  0  0  0  0
    2.8075   -8.6066    0.0000 C   0  0  0  0  0  0  0  0  0  0  0  0
    4.1065   -9.3566    0.0000 O   0  0  0  0  0  0  0  0  0  0  0  0
    1.5084   -9.3566    0.0000 C   0  0  0  0  0  0  0  0  0  0  0  0
    1.0663   -7.9233    0.0000 O   0  0  0  0  0  0  0  0  0  0  0  0
    0.0126   -9.4687    0.0000 C   0  0  0  0  0  0  0  0  0  0  0  0
   -0.8324  -10.7081    0.0000 C   0  0  0  0  0  0  0  0  0  0  0  0
   -0.3902  -12.1415    0.0000 C   0  0  0  0  0  0  0  0  0  0  0  0
    1.0061  -12.6895    0.0000 C   0  0  0  0  0  0  0  0  0  0  0  0
    2.3051  -11.9395    0.0000 C   0  0  0  0  0  0  0  0  0  0  0  0
    3.5445  -12.7844    0.0000 O   0  0  0  0  0  0  0  0  0  0  0  0
    2.5287  -10.4562    0.0000 C   0  0  0  0  0  0  0  0  0  0  0  0
    5.4055   -7.1066    0.0000 C   0  0  0  0  0  0  0  0  0  0  0  0
    6.7046   -6.3566    0.0000 O   0  0  0  0  0  0  0  0  0  0  0  0
    5.4055   -8.6066    0.0000 C   0  0  0  0  0  0  0  0  0  0  0  0
    6.7046   -9.3566    0.0000 O   0  0  0  0  0  0  0  0  0  0  0  0
    6.8973   -4.2634    0.0000 C   0  0  0  0  0  0  0  0  0  0  0  0
    8.1964   -3.5134    0.0000 C   0  0  0  0  0  0  0  0  0  0  0  0
    8.8065   -2.1431    0.0000 C   0  0  0  0  0  0  0  0  0  0  0  0
    8.4946   -0.6759    0.0000 C   0  0  0  0  0  0  0  0  0  0  0  0
    7.3799    0.3278    0.0000 C   0  0  0  0  0  0  0  0  0  0  0  0
    5.8881    0.4846    0.0000 C   0  0  0  0  0  0  0  0  0  0  0  0
    4.5891   -0.2654    0.0000 C   0  0  0  0  0  0  0  0  0  0  0  0
    3.9790   -1.6357    0.0000 C   0  0  0  0  0  0  0  0  0  0  0  0
    4.2908   -3.1029    0.0000 C   0  0  0  0  0  0  0  0  0  0  0  0
    2.9918   -3.8529    0.0000 C   0  0  0  0  0  0  0  0  0  0  0  0
    2.9918   -5.3529    0.0000 C   0  0  0  0  0  0  0  0  0  0  0  0
    4.4836   -5.1962    0.0000 C   0  0  0  0  0  0  0  0  0  0  0  0
    4.9967   -6.6057    0.0000 C   0  0  0  0  0  0  0  0  0  0  0  0
    4.6924   -3.7108    0.0000 C   0  0  0  0  0  0  0  0  0  0  0  0
    5.9833   -5.2224    0.0000 C   0  0  0  0  0  0  0  0  0  0  0  0
    3.3037   -6.8202    0.0000 C   0  0  0  0  0  0  0  0  0  0  0  0
    2.0046   -7.5702    0.0000 C   0  0  0  0  0  0  0  0  0  0  0  0
    1.4915   -8.9797    0.0000 O   0  0  0  0  0  0  0  0  0  0  0  0
    0.8899   -6.5665    0.0000 C   0  0  0  0  0  0  0  0  0  0  0  0
    1.5000   -5.1962    0.0000 C   0  0  0  0  0  0  0  0  0  0  0  0
    0.7500   -3.8971    0.0000 C   0  0  0  0  0  0  0  0  0  0  0  0
    1.5000   -2.5981    0.0000 C   0  0  0  0  0  0  0  0  0  0  0  0
    0.7500   -1.2990    0.0000 C   0  0  0  0  0  0  0  0  0  0  0  0
    1.5000    0.0000    0.0000 C   0  0  0  0  0  0  0  0  0  0  0  0
    0.7500    1.2990    0.0000 C   0  0  0  0  0  0  0  0  0  0  0  0
   -0.7500    1.2990    0.0000 C   0  0  0  0  0  0  0  0  0  0  0  0
   -1.5000    0.0000    0.0000 C   0  0  0  0  0  0  0  0  0  0  0  0
    1.7010   -0.7500    0.0000 C   0  0  0  0  0  0  0  0  0  0  0  0
    3.0000   -0.0000    0.0000 C   0  0  0  0  0  0  0  0  0  0  0  0
    2.2500    1.2990    0.0000 C   0  0  0  0  0  0  0  0  0  0  0  0
    2.2500   -1.2990    0.0000 C   0  0  0  0  0  0  0  0  0  0  0  0
   -0.7500   -1.2990    0.0000 C   0  0  0  0  0  0  0  0  0  0  0  0
  1  2  1  0
  2  3  1  0
  3  4  1  0
  4  5  1  0
  5  6  1  0
  6  7  1  0
  6  8  1  0
  8  9  1  0
  8 10  1  0
 10 11  1  0
 11 12  1  0
 12 13  1  0
 13 14  1  0
 14 15  1  0
 14 16  1  0
  4 17  1  0
 17 18  1  0
 17 19  1  0
 19 20  1  0
  2 21  1  0
 21 22  1  0
 22 23  1  0
 23 24  1  0
 24 25  1  0
 25 26  1  0
 26 27  1  0
 27 28  1  0
 28 29  1  0
 29 30  1  0
 30 31  1  0
 31 32  1  0
 32 33  1  0
 32 34  1  0
 32 35  1  0
 31 36  1  0
 36 37  1  0
 37 38  1  0
 37 39  1  0
 39 40  1  0
 40 41  1  0
 41 42  1  0
 42 43  1  0
 43 44  1  0
 44 45  1  0
 45 46  1  0
 46 47  1  0
 47 48  1  0
 48 49  1  0
 49 50  1  0
 49 51  1  0
 47 52  1  0
 29  2  1  0
 40 31  1  0
 51 43  1  0
 16  8  1  0
 52 43  1  0
 50 45  1  0
M  END
>  <Title>  (248) 
idAAQBgen6

$$$$

     RDKit          2D

 33 36  0  0  0  0  0  0  0  0999 V2000
    2.6491    0.9642    0.0000 C   0  0  0  0  0  0  0  0  0  0  0  0
    1.5000    0.0000    0.0000 C   0  0  0  0  0  0  0  0  0  0  0  0
    2.6491   -0.9642    0.0000 C   0  0  0  0  0  0  0  0  0  0  0  0
    0.7500   -1.2990    0.0000 C   0  0  0  0  0  0  0  0  0  0  0  0
   -0.7500   -1.2990    0.0000 C   0  0  0  0  0  0  0  0  0  0  0  0
   -1.5000    0.0000    0.0000 C   0  0  0  0  0  0  0  0  0  0  0  0
   -0.7500    1.2990    0.0000 C   0  0  0  0  0  0  0  0  0  0  0  0
   -2.1989    0.9108    0.0000 C   0  0  0  0  0  0  0  0  0  0  0  0
   -2.0490    2.0490    0.0000 C   0  0  0  0  0  0  0  0  0  0  0  0
   -3.1097    0.9884    0.0000 C   0  0  0  0  0  0  0  0  0  0  0  0
   -4.5586    1.3766    0.0000 C   0  0  0  0  0  0  0  0  0  0  0  0
   -5.6192    0.3159    0.0000 C   0  0  0  0  0  0  0  0  0  0  0  0
   -5.3846   -1.1656    0.0000 C   0  0  0  0  0  0  0  0  0  0  0  0
   -6.7211   -1.8466    0.0000 C   0  0  0  0  0  0  0  0  0  0  0  0
   -7.7818   -0.7859    0.0000 C   0  0  0  0  0  0  0  0  0  0  0  0
   -7.1008    0.5506    0.0000 C   0  0  0  0  0  0  0  0  0  0  0  0
   -2.7990    3.3481    0.0000 C   0  0  0  0  0  0  0  0  0  0  0  0
   -2.7990    4.8481    0.0000 C   0  0  0  0  0  0  0  0  0  0  0  0
   -2.0490    6.1471    0.0000 C   0  0  0  0  0  0  0  0  0  0  0  0
   -0.7500    6.8971    0.0000 C   0  0  0  0  0  0  0  0  0  0  0  0
    0.7500    6.8971    0.0000 C   0  0  0  0  0  0  0  0  0  0  0  0
    2.0490    6.1471    0.0000 C   0  0  0  0  0  0  0  0  0  0  0  0
    3.1097    7.2078    0.0000 C   0  0  0  0  0  0  0  0  0  0  0  0
    4.5586    6.8195    0.0000 C   0  0  0  0  0  0  0  0  0  0  0  0
    5.6192    7.8802    0.0000 C   0  0  0  0  0  0  0  0  0  0  0  0
    5.3846    9.3617    0.0000 C   0  0  0  0  0  0  0  0  0  0  0  0
    6.7211   10.0427    0.0000 C   0  0  0  0  0  0  0  0  0  0  0  0
    7.7818    8.9821    0.0000 C   0  0  0  0  0  0  0  0  0  0  0  0
    7.1008    7.6456    0.0000 C   0  0  0  0  0  0  0  0  0  0  0  0
    2.7990    4.8481    0.0000 C   0  0  0  0  0  0  0  0  0  0  0  0
    2.7990    3.3481    0.0000 C   0  0  0  0  0  0  0  0  0  0  0  0
    2.0490    2.0490    0.0000 C   0  0  0  0  0  0  0  0  0  0  0  0
    0.7500    1.2990    0.0000 C   0  0  0  0  0  0  0  0  0  0  0  0
  1  2  1  0
  2  3  1  0
  2  4  1  0
  4  5  1  0
  5  6  1  0
  6  7  1  0
  7  8  1  0
  7  9  1  0
  9 10  1  0
 10 11  1  0
 11 12  1  0
 12 13  1  0
 13 14  1  0
 14 15  1  0
 15 16  1  0
  9 17  1  0
 17 18  1  0
 18 19  1  0
 19 20  1  0
 20 21  1  0
 21 22  1  0
 22 23  1  0
 23 24  1  0
 24 25  1  0
 25 26  1  0
 26 27  1  0
 27 28  1  0
 28 29  1  0
 22 30  1  0
 30 31  1  0
 31 32  1  0
 32 33  1  0
 33  2  1  0
 33  7  1  0
 16 12  1  0
 29 25  1  0
M  END
>  <Title>  (249) 
idAAQCgen6

$$$$

     RDKit          2D

 47 50  0  0  0  0  0  0  0  0999 V2000
    0.7500   -6.4952    0.0000 N   0  0  0  0  0  0  0  0  0  0  0  0
    1.5000   -5.1962    0.0000 C   0  0  0  0  0  0  0  0  0  0  0  0
    3.0000   -5.1962    0.0000 O   0  0  0  0  0  0  0  0  0  0  0  0
    0.7500   -3.8971    0.0000 C   0  0  0  0  0  0  0  0  0  0  0  0
    1.5000   -2.5981    0.0000 C   0  0  0  0  0  0  0  0  0  0  0  0
    0.7500   -1.2990    0.0000 C   0  0  0  0  0  0  0  0  0  0  0  0
    1.5000    0.0000    0.0000 C   0  0  0  0  0  0  0  0  0  0  0  0
    0.7500    1.2990    0.0000 C   0  0  0  0  0  0  0  0  0  0  0  0
   -0.7500    1.2990    0.0000 C   0  0  0  0  0  0  0  0  0  0  0  0
   -1.5000    0.0000    0.0000 C   0  0  0  0  0  0  0  0  0  0  0  0
   -0.7500   -1.2990    0.0000 C   0  0  0  0  0  0  0  0  0  0  0  0
   -0.7500   -3.8971    0.0000 C   0  0  0  0  0  0  0  0  0  0  0  0
   -1.5000   -2.5981    0.0000 O   0  0  0  0  0  0  0  0  0  0  0  0
   -1.5000   -5.1962    0.0000 N   0  0  0  0  0  0  0  0  0  0  0  0
   -3.0000   -5.1962    0.0000 C   0  0  0  0  0  0  0  0  0  0  0  0
   -3.7500   -6.4952    0.0000 C   0  0  0  0  0  0  0  0  0  0  0  0
   -5.2500   -6.4952    0.0000 C   0  0  0  0  0  0  0  0  0  0  0  0
   -6.0000   -5.1962    0.0000 C   0  0  0  0  0  0  0  0  0  0  0  0
   -7.5000   -5.1962    0.0000 C   0  0  0  0  0  0  0  0  0  0  0  0
   -8.2500   -6.4952    0.0000 C   0  0  0  0  0  0  0  0  0  0  0  0
   -7.5000   -7.7942    0.0000 C   0  0  0  0  0  0  0  0  0  0  0  0
   -6.0000   -7.7942    0.0000 C   0  0  0  0  0  0  0  0  0  0  0  0
   -3.7500   -3.8971    0.0000 C   0  0  0  0  0  0  0  0  0  0  0  0
   -3.0000   -2.5981    0.0000 O   0  0  0  0  0  0  0  0  0  0  0  0
   -5.2500   -3.8971    0.0000 N   0  0  0  0  0  0  0  0  0  0  0  0
   -6.0000   -2.5981    0.0000 C   0  0  0  0  0  0  0  0  0  0  0  0
   -7.5000   -2.5981    0.0000 C   0  0  0  0  0  0  0  0  0  0  0  0
   -8.2500   -1.2990    0.0000 C   0  0  0  0  0  0  0  0  0  0  0  0
   -7.5000    0.0000    0.0000 C   0  0  0  0  0  0  0  0  0  0  0  0
   -8.2500    1.2990    0.0000 C   0  0  0  0  0  0  0  0  0  0  0  0
   -9.7500    1.2990    0.0000 C   0  0  0  0  0  0  0  0  0  0  0  0
  -10.5000    0.0000    0.0000 C   0  0  0  0  0  0  0  0  0  0  0  0
   -9.7500   -1.2990    0.0000 C   0  0  0  0  0  0  0  0  0  0  0  0
   -5.2500   -1.2990    0.0000 C   0  0  0  0  0  0  0  0  0  0  0  0
   -3.7500   -1.2990    0.0000 O   0  0  0  0  0  0  0  0  0  0  0  0
   -6.0000    0.0000    0.0000 N   0  0  0  0  0  0  0  0  0  0  0  0
   -5.2500    1.2990    0.0000 C   0  0  0  0  0  0  0  0  0  0  0  0
   -6.0000    2.5981    0.0000 C   0  0  0  0  0  0  0  0  0  0  0  0
   -5.2500    3.8971    0.0000 C   0  0  0  0  0  0  0  0  0  0  0  0
   -3.7500    3.8971    0.0000 C   0  0  0  0  0  0  0  0  0  0  0  0
   -3.0000    5.1962    0.0000 C   0  0  0  0  0  0  0  0  0  0  0  0
   -3.7500    6.4952    0.0000 C   0  0  0  0  0  0  0  0  0  0  0  0
   -5.2500    6.4952    0.0000 C   0  0  0  0  0  0  0  0  0  0  0  0
   -6.0000    5.1962    0.0000 C   0  0  0  0  0  0  0  0  0  0  0  0
   -3.7500    1.2990    0.0000 C   0  0  0  0  0  0  0  0  0  0  0  0
   -3.0000    0.0000    0.0000 O   0  0  0  0  0  0  0  0  0  0  0  0
   -3.0000    2.5981    0.0000 O   0  0  0  0  0  0  0  0  0  0  0  0
  1  2  1  0
  2  3  2  0
  2  4  1  0
  4  5  1  0
  5  6  1  0
  6  7  2  0
  7  8  1  0
  8  9  2  0
  9 10  1  0
 10 11  2  0
  4 12  1  0
 12 13  2  0
 12 14  1  0
 14 15  1  0
 15 16  1  0
 16 17  1  0
 17 18  2  0
 18 19  1  0
 19 20  2  0
 20 21  1  0
 21 22  2  0
 15 23  1  0
 23 24  2  0
 23 25  1  0
 25 26  1  0
 26 27  1  0
 27 28  1  0
 28 29  2  0
 29 30  1  0
 30 31  2  0
 31 32  1  0
 32 33  2  0
 26 34  1  0
 34 35  2  0
 34 36  1  0
 36 37  1  0
 37 38  1  0
 38 39  1  0
 39 40  2  0
 40 41  1  0
 41 42  2  0
 42 43  1  0
 43 44  2  0
 37 45  1  0
 45 46  2  0
 45 47  1  0
 11  6  1  0
 22 17  1  0
 33 28  1  0
 44 39  1  0
M  END
>  <Title>  (250) 
idAAQDgen6

$$$$

     RDKit          2D

 53 58  0  0  0  0  0  0  0  0999 V2000
    2.9888   -2.4152    0.0000 O   0  0  0  0  0  0  0  0  0  0  0  0
    1.5000   -2.5981    0.0000 C   0  0  0  0  0  0  0  0  0  0  0  0
    0.7500   -3.8971    0.0000 N   0  0  0  0  0  0  0  0  0  0  0  0
    1.5000   -5.1962    0.0000 C   0  0  0  0  0  0  0  0  0  0  0  0
    0.7500   -6.4952    0.0000 C   0  0  0  0  0  0  0  0  0  0  0  0
   -0.7500   -6.4952    0.0000 C   0  0  0  0  0  0  0  0  0  0  0  0
   -1.5000   -7.7942    0.0000 C   0  0  0  0  0  0  0  0  0  0  0  0
   -0.7500   -9.0933    0.0000 C   0  0  0  0  0  0  0  0  0  0  0  0
    0.7500   -9.0933    0.0000 C   0  0  0  0  0  0  0  0  0  0  0  0
    1.5000   -7.7942    0.0000 C   0  0  0  0  0  0  0  0  0  0  0  0
    0.7500   -1.2990    0.0000 C   0  0  0  0  0  0  0  0  0  0  0  0
    1.5000    0.0000    0.0000 C   0  0  0  0  0  0  0  0  0  0  0  0
    0.7500    1.2990    0.0000 C   0  0  0  0  0  0  0  0  0  0  0  0
   -0.7500    1.2990    0.0000 C   0  0  0  0  0  0  0  0  0  0  0  0
   -1.5000    0.0000    0.0000 C   0  0  0  0  0  0  0  0  0  0  0  0
   -0.7500   -1.2990    0.0000 C   0  0  0  0  0  0  0  0  0  0  0  0
   -0.0000   -0.0000    0.0000 C   0  0  0  0  0  0  0  0  0  0  0  0
    0.7500   -1.2990    0.0000 C   0  0  0  0  0  0  0  0  0  0  0  0
    2.2500   -1.2990    0.0000 O   0  0  0  0  0  0  0  0  0  0  0  0
   -0.0000   -2.5981    0.0000 N   0  0  0  0  0  0  0  0  0  0  0  0
    0.7500   -3.8971    0.0000 C   0  0  0  0  0  0  0  0  0  0  0  0
   -0.0000   -5.1962    0.0000 C   0  0  0  0  0  0  0  0  0  0  0  0
    0.7500   -6.4952    0.0000 C   0  0  0  0  0  0  0  0  0  0  0  0
   -0.0000   -7.7942    0.0000 C   0  0  0  0  0  0  0  0  0  0  0  0
    0.7500   -9.0933    0.0000 C   0  0  0  0  0  0  0  0  0  0  0  0
    2.2500   -9.0933    0.0000 C   0  0  0  0  0  0  0  0  0  0  0  0
    3.0000   -7.7942    0.0000 C   0  0  0  0  0  0  0  0  0  0  0  0
    2.2500   -6.4952    0.0000 C   0  0  0  0  0  0  0  0  0  0  0  0
    2.2500   -3.8971    0.0000 C   0  0  0  0  0  0  0  0  0  0  0  0
    3.1528   -2.6992    0.0000 O   0  0  0  0  0  0  0  0  0  0  0  0
    3.0000   -5.1962    0.0000 N   0  0  0  0  0  0  0  0  0  0  0  0
    4.5000   -5.1962    0.0000 C   0  0  0  0  0  0  0  0  0  0  0  0
    5.2500   -6.4952    0.0000 C   0  0  0  0  0  0  0  0  0  0  0  0
    6.7500   -6.4952    0.0000 C   0  0  0  0  0  0  0  0  0  0  0  0
    7.5000   -7.7942    0.0000 C   0  0  0  0  0  0  0  0  0  0  0  0
    9.0000   -7.7942    0.0000 C   0  0  0  0  0  0  0  0  0  0  0  0
    9.7500   -6.4952    0.0000 C   0  0  0  0  0  0  0  0  0  0  0  0
    9.0000   -5.1962    0.0000 C   0  0  0  0  0  0  0  0  0  0  0  0
    7.5000   -5.1962    0.0000 C   0  0  0  0  0  0  0  0  0  0  0  0
    5.2500   -3.8971    0.0000 C   0  0  0  0  0  0  0  0  0  0  0  0
    4.5000   -2.5981    0.0000 O   0  0  0  0  0  0  0  0  0  0  0  0
    6.7500   -3.8971    0.0000 N   0  0  0  0  0  0  0  0  0  0  0  0
    7.5000   -2.5981    0.0000 C   0  0  0  0  0  0  0  0  0  0  0  0
    9.0000   -2.5981    0.0000 C   0  0  0  0  0  0  0  0  0  0  0  0
    9.7500   -1.2990    0.0000 C   0  0  0  0  0  0  0  0  0  0  0  0
   11.2500   -1.2990    0.0000 C   0  0  0  0  0  0  0  0  0  0  0  0
   12.0000   -0.0000    0.0000 C   0  0  0  0  0  0  0  0  0  0  0  0
   11.2500    1.2990    0.0000 C   0  0  0  0  0  0  0  0  0  0  0  0
    9.7500    1.2990    0.0000 C   0  0  0  0  0  0  0  0  0  0  0  0
    9.0000   -0.0000    0.0000 C   0  0  0  0  0  0  0  0  0  0  0  0
    6.7500   -1.2990    0.0000 C   0  0  0  0  0  0  0  0  0  0  0  0
    5.2500   -1.2990    0.0000 O   0  0  0  0  0  0  0  0  0  0  0  0
    7.5000   -0.0000    0.0000 O   0  0  0  0  0  0  0  0  0  0  0  0
  1  2  2  0
  2  3  1  0
  3  4  1  0
  4  5  1  0
  5  6  2  0
  6  7  1  0
  7  8  2  0
  8  9  1  0
  9 10  2  0
  2 11  1  0
 11 12  1  0
 12 13  1  0
 13 14  1  0
 14 15  1  0
 15 16  1  0
 15 17  1  0
 17 18  1  0
 18 19  2  0
 18 20  1  0
 20 21  1  0
 21 22  1  0
 22 23  1  0
 23 24  2  0
 24 25  1  0
 25 26  2  0
 26 27  1  0
 27 28  2  0
 21 29  1  0
 29 30  2  0
 29 31  1  0
 31 32  1  0
 32 33  1  0
 33 34  1  0
 34 35  2  0
 35 36  1  0
 36 37  2  0
 37 38  1  0
 38 39  2  0
 32 40  1  0
 40 41  2  0
 40 42  1  0
 42 43  1  0
 43 44  1  0
 44 45  1  0
 45 46  2  0
 46 47  1  0
 47 48  2  0
 48 49  1  0
 49 50  2  0
 43 51  1  0
 51 52  2  0
 51 53  1  0
 10  5  1  0
 16 11  1  0
 28 23  1  0
 39 34  1  0
 50 45  1  0
 17 13  1  0
M  END
>  <Title>  (251) 
idAAQEgen6

$$$$

     RDKit          2D

 48 54  0  0  0  0  0  0  0  0999 V2000
   -3.7885    2.3473    0.0000 C   0  0  0  0  0  0  0  0  0  0  0  0
   -5.0875    1.5973    0.0000 C   0  0  0  0  0  0  0  0  0  0  0  0
   -6.3866    0.8473    0.0000 C   0  0  0  0  0  0  0  0  0  0  0  0
   -5.8375    2.8963    0.0000 C   0  0  0  0  0  0  0  0  0  0  0  0
   -4.3375    0.2982    0.0000 C   0  0  0  0  0  0  0  0  0  0  0  0
   -5.3412   -0.8165    0.0000 C   0  0  0  0  0  0  0  0  0  0  0  0
   -5.4980   -2.3083    0.0000 C   0  0  0  0  0  0  0  0  0  0  0  0
   -4.7480   -3.6073    0.0000 C   0  0  0  0  0  0  0  0  0  0  0  0
   -5.7517   -4.7220    0.0000 C   0  0  0  0  0  0  0  0  0  0  0  0
   -5.1829   -6.1100    0.0000 C   0  0  0  0  0  0  0  0  0  0  0  0
   -5.9134   -7.4201    0.0000 C   0  0  0  0  0  0  0  0  0  0  0  0
   -7.3931   -7.6658    0.0000 C   0  0  0  0  0  0  0  0  0  0  0  0
   -8.5078   -6.6621    0.0000 C   0  0  0  0  0  0  0  0  0  0  0  0
   -8.4181   -5.1648    0.0000 C   0  0  0  0  0  0  0  0  0  0  0  0
   -7.1915   -4.3014    0.0000 C   0  0  0  0  0  0  0  0  0  0  0  0
   -8.3063   -3.2977    0.0000 C   0  0  0  0  0  0  0  0  0  0  0  0
   -6.4611   -2.9913    0.0000 C   0  0  0  0  0  0  0  0  0  0  0  0
   -3.3777   -4.2174    0.0000 C   0  0  0  0  0  0  0  0  0  0  0  0
   -1.9105   -3.9055    0.0000 C   0  0  0  0  0  0  0  0  0  0  0  0
   -0.9068   -2.7908    0.0000 C   0  0  0  0  0  0  0  0  0  0  0  0
   -0.7500   -1.2990    0.0000 C   0  0  0  0  0  0  0  0  0  0  0  0
    0.2537   -2.4138    0.0000 C   0  0  0  0  0  0  0  0  0  0  0  0
    0.7500   -1.2990    0.0000 C   0  0  0  0  0  0  0  0  0  0  0  0
    1.5000   -2.5981    0.0000 C   0  0  0  0  0  0  0  0  0  0  0  0
    3.0000   -2.5981    0.0000 C   0  0  0  0  0  0  0  0  0  0  0  0
    3.7500   -3.8971    0.0000 C   0  0  0  0  0  0  0  0  0  0  0  0
    5.2500   -3.8971    0.0000 C   0  0  0  0  0  0  0  0  0  0  0  0
    6.0000   -2.5981    0.0000 C   0  0  0  0  0  0  0  0  0  0  0  0
    5.2500   -1.2990    0.0000 C   0  0  0  0  0  0  0  0  0  0  0  0
    3.7500   -1.2990    0.0000 C   0  0  0  0  0  0  0  0  0  0  0  0
    1.5000    0.0000    0.0000 C   0  0  0  0  0  0  0  0  0  0  0  0
    0.7500    1.2990    0.0000 C   0  0  0  0  0  0  0  0  0  0  0  0
   -0.7500    1.2990    0.0000 C   0  0  0  0  0  0  0  0  0  0  0  0
   -1.5000    0.0000    0.0000 C   0  0  0  0  0  0  0  0  0  0  0  0
   -1.9635    1.4266    0.0000 C   0  0  0  0  0  0  0  0  0  0  0  0
   -2.8703    0.6101    0.0000 C   0  0  0  0  0  0  0  0  0  0  0  0
   -2.7135    2.1019    0.0000 C   0  0  0  0  0  0  0  0  0  0  0  0
   -1.3432    2.7120    0.0000 C   0  0  0  0  0  0  0  0  0  0  0  0
   -1.1864    4.2038    0.0000 C   0  0  0  0  0  0  0  0  0  0  0  0
    0.1839    4.8139    0.0000 C   0  0  0  0  0  0  0  0  0  0  0  0
    0.3407    6.3057    0.0000 C   0  0  0  0  0  0  0  0  0  0  0  0
   -0.8728    7.1873    0.0000 C   0  0  0  0  0  0  0  0  0  0  0  0
   -2.2431    6.5772    0.0000 C   0  0  0  0  0  0  0  0  0  0  0  0
   -0.0944    4.0890    0.0000 C   0  0  0  0  0  0  0  0  0  0  0  0
    1.3974    3.9322    0.0000 C   0  0  0  0  0  0  0  0  0  0  0  0
    1.5542    5.4240    0.0000 C   0  0  0  0  0  0  0  0  0  0  0  0
    0.0271    3.3221    0.0000 C   0  0  0  0  0  0  0  0  0  0  0  0
   -2.3999    5.0855    0.0000 C   0  0  0  0  0  0  0  0  0  0  0  0
  1  2  1  0
  2  3  1  0
  2  4  1  0
  2  5  1  0
  5  6  1  0
  6  7  1  0
  7  8  1  0
  8  9  1  0
  9 10  1  0
 10 11  1  0
 11 12  1  0
 12 13  1  0
 13 14  1  0
 14 15  1  0
 15 16  1  0
 15 17  1  0
  8 18  1  0
 18 19  1  0
 19 20  1  0
 20 21  1  0
 21 22  1  0
 21 23  1  0
 23 24  1  0
 24 25  1  0
 25 26  2  0
 26 27  1  0
 27 28  2  0
 28 29  1  0
 29 30  2  0
 23 31  1  0
 31 32  1  0
 32 33  1  0
 33 34  1  0
 34 35  1  0
 34 36  1  0
 36 37  1  0
 37 38  1  0
 38 39  1  0
 39 40  1  0
 40 41  1  0
 41 42  1  0
 42 43  1  0
 43 44  1  0
 44 45  1  0
 45 46  1  0
 45 47  1  0
 43 48  1  0
 36  5  1  0
 47 39  1  0
 15  9  1  0
 34 21  1  0
 48 39  1  0
 30 25  1  0
 46 41  1  0
M  END
>  <Title>  (252) 
idAAQFgen6

$$$$

     RDKit          2D

 74 83  0  0  0  0  0  0  0  0999 V2000
   -4.5000   -2.5981    0.0000 O   0  0  0  0  0  0  0  0  0  0  0  0
   -3.7500   -3.8971    0.0000 C   0  0  0  0  0  0  0  0  0  0  0  0
   -2.2500   -3.8971    0.0000 N   0  0  0  0  0  0  0  0  0  0  0  0
   -1.5000   -2.5981    0.0000 C   0  0  0  0  0  0  0  0  0  0  0  0
   -0.0000   -2.5981    0.0000 C   0  0  0  0  0  0  0  0  0  0  0  0
    0.7500   -1.2990    0.0000 C   0  0  0  0  0  0  0  0  0  0  0  0
    1.5000    0.0000    0.0000 C   0  0  0  0  0  0  0  0  0  0  0  0
    0.7500    1.2990    0.0000 C   0  0  0  0  0  0  0  0  0  0  0  0
   -0.7500    1.2990    0.0000 C   0  0  0  0  0  0  0  0  0  0  0  0
   -1.5000    0.0000    0.0000 C   0  0  0  0  0  0  0  0  0  0  0  0
   -2.2500   -1.2990    0.0000 C   0  0  0  0  0  0  0  0  0  0  0  0
   -0.7500   -1.2990    0.0000 N   0  0  0  0  0  0  0  0  0  0  0  0
   -1.5000   -2.5981    0.0000 C   0  0  0  0  0  0  0  0  0  0  0  0
   -3.0000   -2.5981    0.0000 C   0  0  0  0  0  0  0  0  0  0  0  0
   -3.7500   -3.8971    0.0000 C   0  0  0  0  0  0  0  0  0  0  0  0
   -5.2500   -3.8971    0.0000 C   0  0  0  0  0  0  0  0  0  0  0  0
   -6.0000   -5.1962    0.0000 C   0  0  0  0  0  0  0  0  0  0  0  0
   -5.2500   -6.4952    0.0000 C   0  0  0  0  0  0  0  0  0  0  0  0
   -3.7500   -6.4952    0.0000 C   0  0  0  0  0  0  0  0  0  0  0  0
   -3.0000   -5.1962    0.0000 C   0  0  0  0  0  0  0  0  0  0  0  0
   -4.5000   -5.1962    0.0000 C   0  0  0  0  0  0  0  0  0  0  0  0
   -3.6550   -6.4355    0.0000 C   0  0  0  0  0  0  0  0  0  0  0  0
   -4.0972   -7.8689    0.0000 O   0  0  0  0  0  0  0  0  0  0  0  0
   -5.4935   -8.4169    0.0000 C   0  0  0  0  0  0  0  0  0  0  0  0
   -6.7925   -7.6669    0.0000 C   0  0  0  0  0  0  0  0  0  0  0  0
   -7.0161   -6.1836    0.0000 C   0  0  0  0  0  0  0  0  0  0  0  0
   -5.9958   -5.0841    0.0000 C   0  0  0  0  0  0  0  0  0  0  0  0
   -5.7170   -6.9336    0.0000 C   0  0  0  0  0  0  0  0  0  0  0  0
   -4.4777   -6.0887    0.0000 C   0  0  0  0  0  0  0  0  0  0  0  0
   -4.2245   -4.6102    0.0000 O   0  0  0  0  0  0  0  0  0  0  0  0
   -3.1262   -6.7395    0.0000 N   0  0  0  0  0  0  0  0  0  0  0  0
   -1.8869   -5.8945    0.0000 C   0  0  0  0  0  0  0  0  0  0  0  0
   -0.5354   -6.5453    0.0000 C   0  0  0  0  0  0  0  0  0  0  0  0
    0.7040   -5.7003    0.0000 C   0  0  0  0  0  0  0  0  0  0  0  0
    2.0554   -6.3512    0.0000 C   0  0  0  0  0  0  0  0  0  0  0  0
    3.2948   -5.5062    0.0000 C   0  0  0  0  0  0  0  0  0  0  0  0
    3.1827   -4.0104    0.0000 C   0  0  0  0  0  0  0  0  0  0  0  0
    1.8312   -3.3596    0.0000 C   0  0  0  0  0  0  0  0  0  0  0  0
    0.5919   -4.2045    0.0000 C   0  0  0  0  0  0  0  0  0  0  0  0
   -1.9990   -4.3987    0.0000 C   0  0  0  0  0  0  0  0  0  0  0  0
   -3.3504   -3.7479    0.0000 O   0  0  0  0  0  0  0  0  0  0  0  0
   -0.7596   -3.5537    0.0000 N   0  0  0  0  0  0  0  0  0  0  0  0
   -0.8717   -2.0579    0.0000 C   0  0  0  0  0  0  0  0  0  0  0  0
    0.3677   -1.2129    0.0000 C   0  0  0  0  0  0  0  0  0  0  0  0
    0.2556    0.2829    0.0000 C   0  0  0  0  0  0  0  0  0  0  0  0
    1.4949    1.1279    0.0000 C   0  0  0  0  0  0  0  0  0  0  0  0
    1.3828    2.6237    0.0000 C   0  0  0  0  0  0  0  0  0  0  0  0
    0.0314    3.2745    0.0000 C   0  0  0  0  0  0  0  0  0  0  0  0
   -1.2080    2.4295    0.0000 C   0  0  0  0  0  0  0  0  0  0  0  0
   -1.0959    0.9337    0.0000 C   0  0  0  0  0  0  0  0  0  0  0  0
   -2.2231   -1.4071    0.0000 C   0  0  0  0  0  0  0  0  0  0  0  0
   -3.6301   -1.9271    0.0000 O   0  0  0  0  0  0  0  0  0  0  0  0
   -2.3352    0.0887    0.0000 N   0  0  0  0  0  0  0  0  0  0  0  0
   -3.6867    0.7395    0.0000 C   0  0  0  0  0  0  0  0  0  0  0  0
   -3.7988    2.2354    0.0000 C   0  0  0  0  0  0  0  0  0  0  0  0
   -5.1502    2.8862    0.0000 C   0  0  0  0  0  0  0  0  0  0  0  0
   -6.3896    2.0412    0.0000 C   0  0  0  0  0  0  0  0  0  0  0  0
   -6.2775    0.5454    0.0000 C   0  0  0  0  0  0  0  0  0  0  0  0
   -4.9260   -0.1054    0.0000 C   0  0  0  0  0  0  0  0  0  0  0  0
   -5.0381    1.3904    0.0000 C   0  0  0  0  0  0  0  0  0  0  0  0
   -3.6867    0.7395    0.0000 C   0  0  0  0  0  0  0  0  0  0  0  0
   -3.5746   -0.7563    0.0000 O   0  0  0  0  0  0  0  0  0  0  0  0
   -2.4473    1.5845    0.0000 N   0  0  0  0  0  0  0  0  0  0  0  0
   -1.0959    0.9337    0.0000 C   0  0  0  0  0  0  0  0  0  0  0  0
    0.1435    1.7787    0.0000 C   0  0  0  0  0  0  0  0  0  0  0  0
    1.4949    1.1279    0.0000 C   0  0  0  0  0  0  0  0  0  0  0  0
    1.6070   -0.3679    0.0000 C   0  0  0  0  0  0  0  0  0  0  0  0
    2.9585   -1.0188    0.0000 C   0  0  0  0  0  0  0  0  0  0  0  0
    4.1978   -0.1738    0.0000 C   0  0  0  0  0  0  0  0  0  0  0  0
    4.0857    1.3220    0.0000 C   0  0  0  0  0  0  0  0  0  0  0  0
    2.7343    1.9728    0.0000 C   0  0  0  0  0  0  0  0  0  0  0  0
   -0.9838   -0.5621    0.0000 C   0  0  0  0  0  0  0  0  0  0  0  0
   -2.2231   -1.4071    0.0000 O   0  0  0  0  0  0  0  0  0  0  0  0
    0.5150   -0.5021    0.0000 O   0  0  0  0  0  0  0  0  0  0  0  0
  1  2  2  0
  2  3  1  0
  3  4  1  0
  4  5  1  0
  5  6  1  0
  6  7  1  0
  7  8  1  0
  8  9  1  0
  9 10  1  0
 10 11  1  0
 10 12  1  0
 12 13  1  0
 13 14  1  0
 14 15  1  0
 15 16  2  0
 16 17  1  0
 17 18  2  0
 18 19  1  0
 19 20  2  0
  2 21  1  0
 21 22  1  0
 22 23  1  0
 23 24  1  0
 24 25  1  0
 25 26  1  0
 26 27  1  0
 26 28  1  0
 28 29  1  0
 29 30  2  0
 29 31  1  0
 31 32  1  0
 32 33  1  0
 33 34  1  0
 34 35  2  0
 35 36  1  0
 36 37  2  0
 37 38  1  0
 38 39  2  0
 32 40  1  0
 40 41  2  0
 40 42  1  0
 42 43  1  0
 43 44  1  0
 44 45  1  0
 45 46  2  0
 46 47  1  0
 47 48  2  0
 48 49  1  0
 49 50  2  0
 43 51  1  0
 51 52  2  0
 51 53  1  0
 53 54  1  0
 54 55  1  0
 55 56  1  0
 56 57  1  0
 57 58  1  0
 58 59  1  0
 58 60  1  0
 60 61  1  0
 61 62  2  0
 61 63  1  0
 63 64  1  0
 64 65  1  0
 65 66  1  0
 66 67  2  0
 67 68  1  0
 68 69  2  0
 69 70  1  0
 70 71  2  0
 64 72  1  0
 72 73  2  0
 72 74  1  0
 11  4  1  0
 20 15  1  0
 27 21  1  0
 39 34  1  0
 50 45  1  0
 59 54  1  0
 71 66  1  0
 12  6  1  0
 28 24  1  0
 60 56  1  0
M  END
>  <Title>  (253) 
idAAQGgen6

$$$$

     RDKit          2D

 24 25  0  0  0  0  0  0  0  0999 V2000
    3.2286   -1.5000    0.0000 C   0  0  0  0  0  0  0  0  0  0  0  0
    3.2286   -0.0000    0.0000 C   0  0  0  0  0  0  0  0  0  0  0  0
    3.2286    1.5000    0.0000 C   0  0  0  0  0  0  0  0  0  0  0  0
    4.7286    0.0000    0.0000 C   0  0  0  0  0  0  0  0  0  0  0  0
    1.7286    0.0000    0.0000 C   0  0  0  0  0  0  0  0  0  0  0  0
    1.0777    1.3515    0.0000 C   0  0  0  0  0  0  0  0  0  0  0  0
   -0.3846    1.6852    0.0000 C   0  0  0  0  0  0  0  0  0  0  0  0
   -0.7184    3.1476    0.0000 C   0  0  0  0  0  0  0  0  0  0  0  0
    0.3812    4.1679    0.0000 C   0  0  0  0  0  0  0  0  0  0  0  0
    0.0474    5.6303    0.0000 C   0  0  0  0  0  0  0  0  0  0  0  0
   -1.4150    5.9641    0.0000 C   0  0  0  0  0  0  0  0  0  0  0  0
   -2.0658    7.3155    0.0000 C   0  0  0  0  0  0  0  0  0  0  0  0
   -1.4150    8.6670    0.0000 C   0  0  0  0  0  0  0  0  0  0  0  0
    0.0474    9.0007    0.0000 C   0  0  0  0  0  0  0  0  0  0  0  0
    1.2201    8.0655    0.0000 C   0  0  0  0  0  0  0  0  0  0  0  0
    1.2201    6.5655    0.0000 C   0  0  0  0  0  0  0  0  0  0  0  0
    2.6825    6.8993    0.0000 C   0  0  0  0  0  0  0  0  0  0  0  0
    1.8709    5.2141    0.0000 C   0  0  0  0  0  0  0  0  0  0  0  0
   -1.5574    0.7500    0.0000 C   0  0  0  0  0  0  0  0  0  0  0  0
   -1.5574   -0.7500    0.0000 C   0  0  0  0  0  0  0  0  0  0  0  0
   -0.3846   -1.6852    0.0000 C   0  0  0  0  0  0  0  0  0  0  0  0
    1.0777   -1.3515    0.0000 C   0  0  0  0  0  0  0  0  0  0  0  0
    2.5401   -1.6852    0.0000 C   0  0  0  0  0  0  0  0  0  0  0  0
    1.0777   -2.8515    0.0000 C   0  0  0  0  0  0  0  0  0  0  0  0
  1  2  1  0
  2  3  1  0
  2  4  1  0
  2  5  1  0
  5  6  1  0
  6  7  1  0
  7  8  1  0
  8  9  1  0
  9 10  1  0
 10 11  1  0
 11 12  1  0
 12 13  1  0
 13 14  1  0
 14 15  1  0
 15 16  1  0
 16 17  1  0
 16 18  1  0
  7 19  1  0
 19 20  1  0
 20 21  1  0
 21 22  1  0
 22 23  1  0
 22 24  1  0
 22  5  1  0
 16 10  1  0
M  END
>  <Title>  (254) 
idAAQHgen6

$$$$

     RDKit          2D

 63 67  0  0  0  0  0  0  0  0999 V2000
    1.0005   -3.3167    0.0000 C   0  0  0  0  0  0  0  0  0  0  0  0
    2.4271   -2.8532    0.0000 C   0  0  0  0  0  0  0  0  0  0  0  0
    3.2223   -2.7976    0.0000 C   0  0  0  0  0  0  0  0  0  0  0  0
    2.8495   -3.5292    0.0000 C   0  0  0  0  0  0  0  0  0  0  0  0
    1.9635   -1.4266    0.0000 C   0  0  0  0  0  0  0  0  0  0  0  0
    3.4635   -1.4266    0.0000 C   0  0  0  0  0  0  0  0  0  0  0  0
    4.2135   -2.7256    0.0000 C   0  0  0  0  0  0  0  0  0  0  0  0
    5.7135   -2.7256    0.0000 C   0  0  0  0  0  0  0  0  0  0  0  0
    6.4635   -4.0247    0.0000 C   0  0  0  0  0  0  0  0  0  0  0  0
    7.9635   -4.0247    0.0000 C   0  0  0  0  0  0  0  0  0  0  0  0
    8.7135   -2.7256    0.0000 C   0  0  0  0  0  0  0  0  0  0  0  0
    7.9635   -1.4266    0.0000 C   0  0  0  0  0  0  0  0  0  0  0  0
    6.4635   -1.4266    0.0000 C   0  0  0  0  0  0  0  0  0  0  0  0
    4.2135   -0.1275    0.0000 C   0  0  0  0  0  0  0  0  0  0  0  0
    3.4635    1.1715    0.0000 O   0  0  0  0  0  0  0  0  0  0  0  0
    5.7135   -0.1275    0.0000 N   0  0  0  0  0  0  0  0  0  0  0  0
    6.4635    1.1715    0.0000 C   0  0  0  0  0  0  0  0  0  0  0  0
    7.9635    1.1715    0.0000 C   0  0  0  0  0  0  0  0  0  0  0  0
    8.7135    2.4705    0.0000 C   0  0  0  0  0  0  0  0  0  0  0  0
   10.2135    2.4705    0.0000 C   0  0  0  0  0  0  0  0  0  0  0  0
   10.9635    3.7696    0.0000 C   0  0  0  0  0  0  0  0  0  0  0  0
   10.2135    5.0686    0.0000 C   0  0  0  0  0  0  0  0  0  0  0  0
    8.7135    5.0686    0.0000 C   0  0  0  0  0  0  0  0  0  0  0  0
    7.9635    3.7696    0.0000 C   0  0  0  0  0  0  0  0  0  0  0  0
    5.7135    2.4705    0.0000 C   0  0  0  0  0  0  0  0  0  0  0  0
    4.2135    2.4705    0.0000 O   0  0  0  0  0  0  0  0  0  0  0  0
    6.4635    3.7696    0.0000 N   0  0  0  0  0  0  0  0  0  0  0  0
    5.7135    5.0686    0.0000 C   0  0  0  0  0  0  0  0  0  0  0  0
    6.4635    6.3676    0.0000 C   0  0  0  0  0  0  0  0  0  0  0  0
    5.7135    7.6667    0.0000 C   0  0  0  0  0  0  0  0  0  0  0  0
    6.4635    8.9657    0.0000 C   0  0  0  0  0  0  0  0  0  0  0  0
    5.7135   10.2648    0.0000 C   0  0  0  0  0  0  0  0  0  0  0  0
    4.2135   10.2648    0.0000 C   0  0  0  0  0  0  0  0  0  0  0  0
    3.4635    8.9657    0.0000 C   0  0  0  0  0  0  0  0  0  0  0  0
    4.2135    7.6667    0.0000 C   0  0  0  0  0  0  0  0  0  0  0  0
    4.2135    5.0686    0.0000 C   0  0  0  0  0  0  0  0  0  0  0  0
    3.4635    3.7696    0.0000 O   0  0  0  0  0  0  0  0  0  0  0  0
    3.4635    6.3676    0.0000 O   0  0  0  0  0  0  0  0  0  0  0  0
    2.4271    0.0000    0.0000 C   0  0  0  0  0  0  0  0  0  0  0  0
    1.9635    1.4266    0.0000 C   0  0  0  0  0  0  0  0  0  0  0  0
    0.7500    2.3083    0.0000 C   0  0  0  0  0  0  0  0  0  0  0  0
   -0.7500    2.3083    0.0000 C   0  0  0  0  0  0  0  0  0  0  0  0
   -1.9635    1.4266    0.0000 C   0  0  0  0  0  0  0  0  0  0  0  0
   -2.4271    0.0000    0.0000 C   0  0  0  0  0  0  0  0  0  0  0  0
   -1.9635   -1.4266    0.0000 C   0  0  0  0  0  0  0  0  0  0  0  0
   -0.7500   -2.3083    0.0000 C   0  0  0  0  0  0  0  0  0  0  0  0
    0.7500   -2.3083    0.0000 C   0  0  0  0  0  0  0  0  0  0  0  0
    1.7141   -3.4574    0.0000 C   0  0  0  0  0  0  0  0  0  0  0  0
    0.2865   -3.7348    0.0000 C   0  0  0  0  0  0  0  0  0  0  0  0
    1.2902   -4.8496    0.0000 C   0  0  0  0  0  0  0  0  0  0  0  0
    0.8266   -6.2761    0.0000 C   0  0  0  0  0  0  0  0  0  0  0  0
    1.8303   -7.3909    0.0000 C   0  0  0  0  0  0  0  0  0  0  0  0
    3.2976   -7.0790    0.0000 O   0  0  0  0  0  0  0  0  0  0  0  0
    1.3668   -8.8175    0.0000 C   0  0  0  0  0  0  0  0  0  0  0  0
   -0.0035   -8.2073    0.0000 O   0  0  0  0  0  0  0  0  0  0  0  0
    0.6168  -10.1165    0.0000 C   0  0  0  0  0  0  0  0  0  0  0  0
    1.6205  -11.2312    0.0000 C   0  0  0  0  0  0  0  0  0  0  0  0
    2.9908  -10.6211    0.0000 C   0  0  0  0  0  0  0  0  0  0  0  0
    2.8340   -9.1293    0.0000 C   0  0  0  0  0  0  0  0  0  0  0  0
    2.7574   -4.5377    0.0000 C   0  0  0  0  0  0  0  0  0  0  0  0
    3.0037   -3.7796    0.0000 O   0  0  0  0  0  0  0  0  0  0  0  0
    3.7611   -5.6524    0.0000 C   0  0  0  0  0  0  0  0  0  0  0  0
    5.2283   -5.3405    0.0000 O   0  0  0  0  0  0  0  0  0  0  0  0
  1  2  1  0
  2  3  1  0
  2  4  1  0
  2  5  1  0
  5  6  1  0
  6  7  1  0
  7  8  1  0
  8  9  2  0
  9 10  1  0
 10 11  2  0
 11 12  1  0
 12 13  2  0
  6 14  1  0
 14 15  2  0
 14 16  1  0
 16 17  1  0
 17 18  1  0
 18 19  1  0
 19 20  2  0
 20 21  1  0
 21 22  2  0
 22 23  1  0
 23 24  2  0
 17 25  1  0
 25 26  2  0
 25 27  1  0
 27 28  1  0
 28 29  1  0
 29 30  1  0
 30 31  2  0
 31 32  1  0
 32 33  2  0
 33 34  1  0
 34 35  2  0
 28 36  1  0
 36 37  2  0
 36 38  1  0
  5 39  1  0
 39 40  1  0
 40 41  1  0
 41 42  1  0
 42 43  1  0
 43 44  1  0
 44 45  1  0
 45 46  1  0
 46 47  1  0
 47 48  1  0
 47 49  1  0
 49 50  1  0
 50 51  1  0
 51 52  1  0
 52 53  1  0
 52 54  1  0
 54 55  1  0
 54 56  1  0
 56 57  1  0
 57 58  1  0
 58 59  1  0
 50 60  1  0
 60 61  1  0
 60 62  1  0
 62 63  1  0
 47  5  1  0
 59 54  1  0
 13  8  1  0
 24 19  1  0
 35 30  1  0
M  END
>  <Title>  (255) 
idAAQIgen6

$$$$

     RDKit          2D

 56 62  0  0  0  0  0  0  0  0999 V2000
   -0.7388   -4.0800    0.0000 O   0  0  0  0  0  0  0  0  0  0  0  0
    0.7500   -3.8971    0.0000 C   0  0  0  0  0  0  0  0  0  0  0  0
    1.5000   -2.5981    0.0000 N   0  0  0  0  0  0  0  0  0  0  0  0
    0.7500   -1.2990    0.0000 C   0  0  0  0  0  0  0  0  0  0  0  0
    1.5000    0.0000    0.0000 C   0  0  0  0  0  0  0  0  0  0  0  0
    0.7500    1.2990    0.0000 C   0  0  0  0  0  0  0  0  0  0  0  0
   -0.7500    1.2990    0.0000 C   0  0  0  0  0  0  0  0  0  0  0  0
   -1.5000    0.0000    0.0000 C   0  0  0  0  0  0  0  0  0  0  0  0
   -0.7500   -1.2990    0.0000 C   0  0  0  0  0  0  0  0  0  0  0  0
   -0.0000   -0.0000    0.0000 C   0  0  0  0  0  0  0  0  0  0  0  0
    0.7500   -1.2990    0.0000 C   0  0  0  0  0  0  0  0  0  0  0  0
    2.2054   -0.9361    0.0000 O   0  0  0  0  0  0  0  0  0  0  0  0
   -0.0000   -2.5981    0.0000 N   0  0  0  0  0  0  0  0  0  0  0  0
    0.7500   -3.8971    0.0000 C   0  0  0  0  0  0  0  0  0  0  0  0
   -0.0000   -5.1962    0.0000 C   0  0  0  0  0  0  0  0  0  0  0  0
    0.7500   -6.4952    0.0000 C   0  0  0  0  0  0  0  0  0  0  0  0
   -0.0000   -7.7942    0.0000 C   0  0  0  0  0  0  0  0  0  0  0  0
    0.7500   -9.0933    0.0000 C   0  0  0  0  0  0  0  0  0  0  0  0
    2.2500   -9.0933    0.0000 C   0  0  0  0  0  0  0  0  0  0  0  0
    3.0000   -7.7942    0.0000 C   0  0  0  0  0  0  0  0  0  0  0  0
    2.2500   -6.4952    0.0000 C   0  0  0  0  0  0  0  0  0  0  0  0
    2.2500   -3.8971    0.0000 C   0  0  0  0  0  0  0  0  0  0  0  0
    3.2920   -4.9761    0.0000 O   0  0  0  0  0  0  0  0  0  0  0  0
    3.0000   -2.5981    0.0000 O   0  0  0  0  0  0  0  0  0  0  0  0
    1.5000   -5.1962    0.0000 C   0  0  0  0  0  0  0  0  0  0  0  0
    0.7500   -6.4952    0.0000 C   0  0  0  0  0  0  0  0  0  0  0  0
    1.5000   -7.7942    0.0000 C   0  0  0  0  0  0  0  0  0  0  0  0
    3.0000   -7.7942    0.0000 C   0  0  0  0  0  0  0  0  0  0  0  0
    3.7500   -6.4952    0.0000 C   0  0  0  0  0  0  0  0  0  0  0  0
    3.0000   -5.1962    0.0000 C   0  0  0  0  0  0  0  0  0  0  0  0
    2.2500   -6.4952    0.0000 C   0  0  0  0  0  0  0  0  0  0  0  0
    1.5000   -5.1962    0.0000 C   0  0  0  0  0  0  0  0  0  0  0  0
    0.0446   -5.5591    0.0000 O   0  0  0  0  0  0  0  0  0  0  0  0
    2.2500   -3.8971    0.0000 N   0  0  0  0  0  0  0  0  0  0  0  0
    1.5000   -2.5981    0.0000 C   0  0  0  0  0  0  0  0  0  0  0  0
    2.2500   -1.2990    0.0000 C   0  0  0  0  0  0  0  0  0  0  0  0
    1.5000    0.0000    0.0000 C   0  0  0  0  0  0  0  0  0  0  0  0
    2.2500    1.2990    0.0000 C   0  0  0  0  0  0  0  0  0  0  0  0
    1.5000    2.5981    0.0000 C   0  0  0  0  0  0  0  0  0  0  0  0
    0.0000    2.5981    0.0000 C   0  0  0  0  0  0  0  0  0  0  0  0
   -0.7500    1.2990    0.0000 C   0  0  0  0  0  0  0  0  0  0  0  0
    0.0000    0.0000    0.0000 C   0  0  0  0  0  0  0  0  0  0  0  0
    0.0000   -2.5981    0.0000 C   0  0  0  0  0  0  0  0  0  0  0  0
   -0.9028   -3.7960    0.0000 O   0  0  0  0  0  0  0  0  0  0  0  0
   -0.7500   -1.2990    0.0000 N   0  0  0  0  0  0  0  0  0  0  0  0
   -2.2500   -1.2990    0.0000 C   0  0  0  0  0  0  0  0  0  0  0  0
   -3.0000    0.0000    0.0000 C   0  0  0  0  0  0  0  0  0  0  0  0
   -4.5000    0.0000    0.0000 C   0  0  0  0  0  0  0  0  0  0  0  0
   -5.2500    1.2990    0.0000 C   0  0  0  0  0  0  0  0  0  0  0  0
   -6.7500    1.2990    0.0000 C   0  0  0  0  0  0  0  0  0  0  0  0
   -7.5000    0.0000    0.0000 C   0  0  0  0  0  0  0  0  0  0  0  0
   -6.7500   -1.2990    0.0000 C   0  0  0  0  0  0  0  0  0  0  0  0
   -5.2500   -1.2990    0.0000 C   0  0  0  0  0  0  0  0  0  0  0  0
   -3.0000   -2.5981    0.0000 C   0  0  0  0  0  0  0  0  0  0  0  0
   -2.2500   -3.8971    0.0000 O   0  0  0  0  0  0  0  0  0  0  0  0
   -4.5000   -2.5981    0.0000 O   0  0  0  0  0  0  0  0  0  0  0  0
  1  2  2  0
  2  3  1  0
  3  4  1  0
  4  5  1  0
  5  6  1  0
  6  7  1  0
  7  8  1  0
  8  9  1  0
  8 10  1  0
 10 11  1  0
 11 12  2  0
 11 13  1  0
 13 14  1  0
 14 15  1  0
 15 16  1  0
 16 17  2  0
 17 18  1  0
 18 19  2  0
 19 20  1  0
 20 21  2  0
 14 22  1  0
 22 23  2  0
 22 24  1  0
  2 25  1  0
 25 26  1  0
 26 27  1  0
 27 28  1  0
 28 29  1  0
 29 30  1  0
 29 31  1  0
 31 32  1  0
 32 33  2  0
 32 34  1  0
 34 35  1  0
 35 36  1  0
 36 37  1  0
 37 38  2  0
 38 39  1  0
 39 40  2  0
 40 41  1  0
 41 42  2  0
 35 43  1  0
 43 44  2  0
 43 45  1  0
 45 46  1  0
 46 47  1  0
 47 48  1  0
 48 49  2  0
 49 50  1  0
 50 51  2  0
 51 52  1  0
 52 53  2  0
 46 54  1  0
 54 55  2  0
 54 56  1  0
  9  4  1  0
 21 16  1  0
 30 25  1  0
 42 37  1  0
 53 48  1  0
 10  6  1  0
 31 27  1  0
M  END
>  <Title>  (256) 
idAAQJgen6

$$$$

     RDKit          2D

 63 70  0  0  0  0  0  0  0  0999 V2000
    3.0000   -7.7942    0.0000 O   0  0  0  0  0  0  0  0  0  0  0  0
    3.7500   -6.4952    0.0000 C   0  0  0  0  0  0  0  0  0  0  0  0
    3.0000   -5.1962    0.0000 N   0  0  0  0  0  0  0  0  0  0  0  0
    1.5000   -5.1962    0.0000 C   0  0  0  0  0  0  0  0  0  0  0  0
    0.7500   -6.4952    0.0000 C   0  0  0  0  0  0  0  0  0  0  0  0
   -0.7500   -6.4952    0.0000 C   0  0  0  0  0  0  0  0  0  0  0  0
   -1.5000   -7.7942    0.0000 C   0  0  0  0  0  0  0  0  0  0  0  0
   -3.0000   -7.7942    0.0000 C   0  0  0  0  0  0  0  0  0  0  0  0
   -3.7500   -6.4952    0.0000 C   0  0  0  0  0  0  0  0  0  0  0  0
   -3.0000   -5.1962    0.0000 C   0  0  0  0  0  0  0  0  0  0  0  0
   -1.5000   -5.1962    0.0000 C   0  0  0  0  0  0  0  0  0  0  0  0
    0.7500   -3.8971    0.0000 C   0  0  0  0  0  0  0  0  0  0  0  0
   -0.7500   -3.8971    0.0000 O   0  0  0  0  0  0  0  0  0  0  0  0
    1.5000   -2.5981    0.0000 N   0  0  0  0  0  0  0  0  0  0  0  0
    0.7500   -1.2990    0.0000 C   0  0  0  0  0  0  0  0  0  0  0  0
    1.5000    0.0000    0.0000 C   0  0  0  0  0  0  0  0  0  0  0  0
    0.7500    1.2990    0.0000 C   0  0  0  0  0  0  0  0  0  0  0  0
   -0.7500    1.2990    0.0000 C   0  0  0  0  0  0  0  0  0  0  0  0
   -1.5000    0.0000    0.0000 C   0  0  0  0  0  0  0  0  0  0  0  0
   -0.7500   -1.2990    0.0000 C   0  0  0  0  0  0  0  0  0  0  0  0
   -0.0000   -0.0000    0.0000 N   0  0  0  0  0  0  0  0  0  0  0  0
    0.7500   -1.2990    0.0000 C   0  0  0  0  0  0  0  0  0  0  0  0
   -0.0000   -2.5981    0.0000 C   0  0  0  0  0  0  0  0  0  0  0  0
    0.7500   -3.8971    0.0000 C   0  0  0  0  0  0  0  0  0  0  0  0
   -0.0000   -5.1962    0.0000 C   0  0  0  0  0  0  0  0  0  0  0  0
    0.7500   -6.4952    0.0000 C   0  0  0  0  0  0  0  0  0  0  0  0
    2.2500   -6.4952    0.0000 C   0  0  0  0  0  0  0  0  0  0  0  0
    3.0000   -5.1962    0.0000 C   0  0  0  0  0  0  0  0  0  0  0  0
    2.2500   -3.8971    0.0000 C   0  0  0  0  0  0  0  0  0  0  0  0
    5.2500   -6.4952    0.0000 C   0  0  0  0  0  0  0  0  0  0  0  0
    6.0000   -5.1962    0.0000 O   0  0  0  0  0  0  0  0  0  0  0  0
    6.0000   -7.7942    0.0000 C   0  0  0  0  0  0  0  0  0  0  0  0
    7.5000   -7.7942    0.0000 C   0  0  0  0  0  0  0  0  0  0  0  0
    6.7500   -6.4952    0.0000 C   0  0  0  0  0  0  0  0  0  0  0  0
    5.2500   -6.4952    0.0000 C   0  0  0  0  0  0  0  0  0  0  0  0
    4.5000   -5.1962    0.0000 N   0  0  0  0  0  0  0  0  0  0  0  0
    5.2500   -3.8971    0.0000 C   0  0  0  0  0  0  0  0  0  0  0  0
    6.7500   -3.8971    0.0000 O   0  0  0  0  0  0  0  0  0  0  0  0
    4.5000   -2.5981    0.0000 C   0  0  0  0  0  0  0  0  0  0  0  0
    5.2500   -1.2990    0.0000 C   0  0  0  0  0  0  0  0  0  0  0  0
    4.5000    0.0000    0.0000 C   0  0  0  0  0  0  0  0  0  0  0  0
    5.2500    1.2990    0.0000 C   0  0  0  0  0  0  0  0  0  0  0  0
    4.5000    2.5981    0.0000 C   0  0  0  0  0  0  0  0  0  0  0  0
    3.0000    2.5981    0.0000 C   0  0  0  0  0  0  0  0  0  0  0  0
    2.2500    1.2990    0.0000 C   0  0  0  0  0  0  0  0  0  0  0  0
    3.0000    0.0000    0.0000 C   0  0  0  0  0  0  0  0  0  0  0  0
    3.0000   -2.5981    0.0000 C   0  0  0  0  0  0  0  0  0  0  0  0
    2.5866   -4.0400    0.0000 O   0  0  0  0  0  0  0  0  0  0  0  0
    2.2500   -1.2990    0.0000 N   0  0  0  0  0  0  0  0  0  0  0  0
    0.7500   -1.2990    0.0000 C   0  0  0  0  0  0  0  0  0  0  0  0
   -0.0000   -0.0000    0.0000 C   0  0  0  0  0  0  0  0  0  0  0  0
   -1.5000   -0.0000    0.0000 C   0  0  0  0  0  0  0  0  0  0  0  0
   -2.2500    1.2990    0.0000 C   0  0  0  0  0  0  0  0  0  0  0  0
   -3.7500    1.2990    0.0000 C   0  0  0  0  0  0  0  0  0  0  0  0
   -4.5000   -0.0000    0.0000 C   0  0  0  0  0  0  0  0  0  0  0  0
   -3.7500   -1.2990    0.0000 C   0  0  0  0  0  0  0  0  0  0  0  0
   -2.2500   -1.2990    0.0000 C   0  0  0  0  0  0  0  0  0  0  0  0
   -0.0000   -2.5981    0.0000 C   0  0  0  0  0  0  0  0  0  0  0  0
    1.2722   -3.3928    0.0000 O   0  0  0  0  0  0  0  0  0  0  0  0
   -1.5000   -2.5981    0.0000 O   0  0  0  0  0  0  0  0  0  0  0  0
    4.5000   -7.7942    0.0000 C   0  0  0  0  0  0  0  0  0  0  0  0
    5.2500   -9.0933    0.0000 C   0  0  0  0  0  0  0  0  0  0  0  0
    6.7500   -9.0933    0.0000 C   0  0  0  0  0  0  0  0  0  0  0  0
  1  2  2  0
  2  3  1  0
  3  4  1  0
  4  5  1  0
  5  6  1  0
  6  7  2  0
  7  8  1  0
  8  9  2  0
  9 10  1  0
 10 11  2  0
  4 12  1  0
 12 13  2  0
 12 14  1  0
 14 15  1  0
 15 16  1  0
 16 17  1  0
 17 18  1  0
 18 19  1  0
 19 20  1  0
 19 21  1  0
 21 22  1  0
 22 23  1  0
 23 24  1  0
 24 25  2  0
 25 26  1  0
 26 27  2  0
 27 28  1  0
 28 29  2  0
  2 30  1  0
 30 31  2  0
 30 32  1  0
 32 33  1  0
 33 34  1  0
 34 35  1  0
 35 36  1  0
 36 37  1  0
 37 38  2  0
 37 39  1  0
 39 40  1  0
 40 41  1  0
 41 42  2  0
 42 43  1  0
 43 44  2  0
 44 45  1  0
 45 46  2  0
 39 47  1  0
 47 48  2  0
 47 49  1  0
 49 50  1  0
 50 51  1  0
 51 52  1  0
 52 53  2  0
 53 54  1  0
 54 55  2  0
 55 56  1  0
 56 57  2  0
 50 58  1  0
 58 59  2  0
 58 60  1  0
 35 61  1  0
 61 62  1  0
 62 63  1  0
 11  6  1  0
 20 15  1  0
 29 24  1  0
 62 32  1  0
 21 17  1  0
 63 33  1  0
 46 41  1  0
 57 52  1  0
M  END
>  <Title>  (257) 
idAAQKgen6

$$$$

     RDKit          2D

 38 42  0  0  0  0  0  0  0  0999 V2000
   -1.9987   -6.4954    0.0000 C   0  0  0  0  0  0  0  0  0  0  0  0
   -1.2945   -5.1710    0.0000 C   0  0  0  0  0  0  0  0  0  0  0  0
   -0.5903   -3.8466    0.0000 C   0  0  0  0  0  0  0  0  0  0  0  0
   -2.6189   -4.4668    0.0000 C   0  0  0  0  0  0  0  0  0  0  0  0
    0.0299   -5.8752    0.0000 C   0  0  0  0  0  0  0  0  0  0  0  0
    0.2387   -7.3606    0.0000 C   0  0  0  0  0  0  0  0  0  0  0  0
    1.7159   -7.6211    0.0000 C   0  0  0  0  0  0  0  0  0  0  0  0
    1.0117   -8.9455    0.0000 C   0  0  0  0  0  0  0  0  0  0  0  0
   -0.3127   -8.2413    0.0000 C   0  0  0  0  0  0  0  0  0  0  0  0
    2.3361   -9.6497    0.0000 C   0  0  0  0  0  0  0  0  0  0  0  0
    0.3075  -10.2699    0.0000 C   0  0  0  0  0  0  0  0  0  0  0  0
    2.7579   -8.7001    0.0000 C   0  0  0  0  0  0  0  0  0  0  0  0
    4.1061   -8.0425    0.0000 C   0  0  0  0  0  0  0  0  0  0  0  0
    3.8973   -6.5571    0.0000 C   0  0  0  0  0  0  0  0  0  0  0  0
    2.4201   -6.2967    0.0000 C   0  0  0  0  0  0  0  0  0  0  0  0
    3.1243   -4.9722    0.0000 C   0  0  0  0  0  0  0  0  0  0  0  0
    1.3781   -5.2176    0.0000 C   0  0  0  0  0  0  0  0  0  0  0  0
    1.6386   -3.7404    0.0000 C   0  0  0  0  0  0  0  0  0  0  0  0
    0.4895   -2.7762    0.0000 C   0  0  0  0  0  0  0  0  0  0  0  0
    0.7500   -1.2990    0.0000 C   0  0  0  0  0  0  0  0  0  0  0  0
    2.1595   -1.8121    0.0000 C   0  0  0  0  0  0  0  0  0  0  0  0
    1.5000    0.0000    0.0000 C   0  0  0  0  0  0  0  0  0  0  0  0
    0.7500    1.2990    0.0000 C   0  0  0  0  0  0  0  0  0  0  0  0
   -0.7500    1.2990    0.0000 C   0  0  0  0  0  0  0  0  0  0  0  0
   -1.5000    0.0000    0.0000 C   0  0  0  0  0  0  0  0  0  0  0  0
   -2.2500    1.2990    0.0000 C   0  0  0  0  0  0  0  0  0  0  0  0
   -3.0000    0.0000    0.0000 C   0  0  0  0  0  0  0  0  0  0  0  0
   -3.7500    1.2990    0.0000 C   0  0  0  0  0  0  0  0  0  0  0  0
   -5.2500    1.2990    0.0000 C   0  0  0  0  0  0  0  0  0  0  0  0
   -6.0000    2.5981    0.0000 C   0  0  0  0  0  0  0  0  0  0  0  0
   -7.4918    2.7549    0.0000 C   0  0  0  0  0  0  0  0  0  0  0  0
   -7.8037    4.2221    0.0000 C   0  0  0  0  0  0  0  0  0  0  0  0
   -6.5046    4.9721    0.0000 C   0  0  0  0  0  0  0  0  0  0  0  0
   -5.3899    3.9684    0.0000 C   0  0  0  0  0  0  0  0  0  0  0  0
   -3.7500   -1.2990    0.0000 C   0  0  0  0  0  0  0  0  0  0  0  0
   -3.0000   -2.5981    0.0000 C   0  0  0  0  0  0  0  0  0  0  0  0
   -1.5000   -2.5981    0.0000 C   0  0  0  0  0  0  0  0  0  0  0  0
   -0.7500   -1.2990    0.0000 C   0  0  0  0  0  0  0  0  0  0  0  0
  1  2  1  0
  2  3  1  0
  2  4  1  0
  2  5  1  0
  5  6  1  0
  6  7  1  0
  7  8  1  0
  8  9  1  0
  8 10  1  0
  8 11  1  0
  7 12  1  0
 12 13  1  0
 13 14  1  0
 14 15  1  0
 15 16  1  0
 15 17  1  0
 17 18  1  0
 18 19  1  0
 19 20  1  0
 20 21  1  0
 20 22  1  0
 22 23  1  0
 23 24  1  0
 24 25  1  0
 25 26  1  0
 25 27  1  0
 27 28  1  0
 28 29  1  0
 29 30  1  0
 30 31  1  0
 31 32  1  0
 32 33  1  0
 33 34  1  0
 27 35  1  0
 35 36  1  0
 36 37  1  0
 37 38  1  0
 17  5  1  0
 38 20  1  0
 15  7  1  0
 38 25  1  0
 34 30  1  0
M  END
>  <Title>  (258) 
idAAQLgen6

$$$$

     RDKit          2D

 35 40  0  0  0  0  0  0  0  0999 V2000
   -4.8434    3.3705    0.0000 C   0  0  0  0  0  0  0  0  0  0  0  0
   -3.6706    2.4352    0.0000 C   0  0  0  0  0  0  0  0  0  0  0  0
   -4.8434    1.5000    0.0000 C   0  0  0  0  0  0  0  0  0  0  0  0
   -3.0198    3.7867    0.0000 C   0  0  0  0  0  0  0  0  0  0  0  0
   -1.5574    4.1205    0.0000 C   0  0  0  0  0  0  0  0  0  0  0  0
   -0.3846    3.1852    0.0000 C   0  0  0  0  0  0  0  0  0  0  0  0
   -0.3846    1.6852    0.0000 C   0  0  0  0  0  0  0  0  0  0  0  0
    0.7881    2.6205    0.0000 C   0  0  0  0  0  0  0  0  0  0  0  0
    1.0777    1.3515    0.0000 C   0  0  0  0  0  0  0  0  0  0  0  0
    2.0130    2.5242    0.0000 C   0  0  0  0  0  0  0  0  0  0  0  0
    3.4962    2.3006    0.0000 C   0  0  0  0  0  0  0  0  0  0  0  0
    4.4315    3.4734    0.0000 C   0  0  0  0  0  0  0  0  0  0  0  0
    4.0324    4.9193    0.0000 C   0  0  0  0  0  0  0  0  0  0  0  0
    5.2843    5.7457    0.0000 C   0  0  0  0  0  0  0  0  0  0  0  0
    6.4570    4.8104    0.0000 C   0  0  0  0  0  0  0  0  0  0  0  0
    5.9300    3.4061    0.0000 C   0  0  0  0  0  0  0  0  0  0  0  0
    1.7286    0.0000    0.0000 C   0  0  0  0  0  0  0  0  0  0  0  0
    1.0777   -1.3515    0.0000 C   0  0  0  0  0  0  0  0  0  0  0  0
   -0.3846   -1.6852    0.0000 C   0  0  0  0  0  0  0  0  0  0  0  0
   -1.5574   -0.7500    0.0000 C   0  0  0  0  0  0  0  0  0  0  0  0
   -1.5574    0.7500    0.0000 C   0  0  0  0  0  0  0  0  0  0  0  0
   -2.7301   -0.1852    0.0000 C   0  0  0  0  0  0  0  0  0  0  0  0
   -3.0198    1.0838    0.0000 C   0  0  0  0  0  0  0  0  0  0  0  0
   -3.9550   -0.0890    0.0000 C   0  0  0  0  0  0  0  0  0  0  0  0
   -5.4383    0.1346    0.0000 C   0  0  0  0  0  0  0  0  0  0  0  0
   -6.3735   -1.0381    0.0000 C   0  0  0  0  0  0  0  0  0  0  0  0
   -7.8567   -0.8146    0.0000 C   0  0  0  0  0  0  0  0  0  0  0  0
   -8.7920   -1.9873    0.0000 C   0  0  0  0  0  0  0  0  0  0  0  0
   -8.2440   -3.3836    0.0000 C   0  0  0  0  0  0  0  0  0  0  0  0
   -6.7607   -3.6072    0.0000 C   0  0  0  0  0  0  0  0  0  0  0  0
   -7.2320   -0.3535    0.0000 C   0  0  0  0  0  0  0  0  0  0  0  0
   -8.4048    0.5817    0.0000 C   0  0  0  0  0  0  0  0  0  0  0  0
   -9.3400   -0.5910    0.0000 C   0  0  0  0  0  0  0  0  0  0  0  0
   -6.9215    0.3582    0.0000 C   0  0  0  0  0  0  0  0  0  0  0  0
   -5.8255   -2.4345    0.0000 C   0  0  0  0  0  0  0  0  0  0  0  0
  1  2  1  0
  2  3  1  0
  2  4  1  0
  4  5  1  0
  5  6  1  0
  6  7  1  0
  7  8  1  0
  7  9  1  0
  9 10  1  0
 10 11  1  0
 11 12  1  0
 12 13  1  0
 13 14  1  0
 14 15  1  0
 15 16  1  0
  9 17  1  0
 17 18  1  0
 18 19  1  0
 19 20  1  0
 20 21  1  0
 21 22  1  0
 21 23  1  0
 23 24  1  0
 24 25  1  0
 25 26  1  0
 26 27  1  0
 27 28  1  0
 28 29  1  0
 29 30  1  0
 30 31  1  0
 31 32  1  0
 32 33  1  0
 32 34  1  0
 30 35  1  0
 23  2  1  0
 34 26  1  0
 21  7  1  0
 35 26  1  0
 16 12  1  0
 33 28  1  0
M  END
>  <Title>  (259) 
idAAQMgen6

$$$$

     RDKit          2D

 18 18  0  0  0  0  0  0  0  0999 V2000
    3.4598   -1.5000    0.0000 C   0  0  0  0  0  0  0  0  0  0  0  0
    3.4598    0.0000    0.0000 C   0  0  0  0  0  0  0  0  0  0  0  0
    3.4598    1.5000    0.0000 C   0  0  0  0  0  0  0  0  0  0  0  0
    4.9598    0.0000    0.0000 C   0  0  0  0  0  0  0  0  0  0  0  0
    1.9598    0.0000    0.0000 C   0  0  0  0  0  0  0  0  0  0  0  0
    1.3858   -1.3858    0.0000 C   0  0  0  0  0  0  0  0  0  0  0  0
   -0.0000   -1.9598    0.0000 C   0  0  0  0  0  0  0  0  0  0  0  0
   -1.3858   -1.3858    0.0000 C   0  0  0  0  0  0  0  0  0  0  0  0
   -1.9598    0.0000    0.0000 C   0  0  0  0  0  0  0  0  0  0  0  0
   -3.1499   -0.9131    0.0000 C   0  0  0  0  0  0  0  0  0  0  0  0
   -3.2523    0.7613    0.0000 C   0  0  0  0  0  0  0  0  0  0  0  0
   -1.3858    1.3858    0.0000 C   0  0  0  0  0  0  0  0  0  0  0  0
   -2.4465    2.4465    0.0000 C   0  0  0  0  0  0  0  0  0  0  0  0
   -1.3858    3.5071    0.0000 C   0  0  0  0  0  0  0  0  0  0  0  0
   -3.6285    1.5230    0.0000 C   0  0  0  0  0  0  0  0  0  0  0  0
   -3.5071    3.5071    0.0000 C   0  0  0  0  0  0  0  0  0  0  0  0
    0.0000    1.9598    0.0000 C   0  0  0  0  0  0  0  0  0  0  0  0
    1.3858    1.3858    0.0000 C   0  0  0  0  0  0  0  0  0  0  0  0
  1  2  1  0
  2  3  1  0
  2  4  1  0
  2  5  1  0
  5  6  1  0
  6  7  1  0
  7  8  1  0
  8  9  1  0
  9 10  1  0
  9 11  1  0
  9 12  1  0
 12 13  1  0
 13 14  1  0
 13 15  1  0
 13 16  1  0
 12 17  1  0
 17 18  1  0
 18  5  1  0
M  END
>  <Title>  (260) 
idAAQNgen6

$$$$

     RDKit          2D

 63 71  0  0  0  0  0  0  0  0999 V2000
   -4.6528   -2.6992    0.0000 O   0  0  0  0  0  0  0  0  0  0  0  0
   -3.7500   -3.8971    0.0000 C   0  0  0  0  0  0  0  0  0  0  0  0
   -2.2500   -3.8971    0.0000 N   0  0  0  0  0  0  0  0  0  0  0  0
   -1.5000   -2.5981    0.0000 C   0  0  0  0  0  0  0  0  0  0  0  0
   -0.0000   -2.5981    0.0000 C   0  0  0  0  0  0  0  0  0  0  0  0
    0.7500   -1.2990    0.0000 C   0  0  0  0  0  0  0  0  0  0  0  0
    1.5000    0.0000    0.0000 C   0  0  0  0  0  0  0  0  0  0  0  0
    0.7500    1.2990    0.0000 C   0  0  0  0  0  0  0  0  0  0  0  0
   -0.7500    1.2990    0.0000 C   0  0  0  0  0  0  0  0  0  0  0  0
   -1.5000    0.0000    0.0000 C   0  0  0  0  0  0  0  0  0  0  0  0
   -2.2500   -1.2990    0.0000 C   0  0  0  0  0  0  0  0  0  0  0  0
   -0.7500   -1.2990    0.0000 N   0  0  0  0  0  0  0  0  0  0  0  0
   -1.5000   -2.5981    0.0000 C   0  0  0  0  0  0  0  0  0  0  0  0
   -3.0000   -2.5981    0.0000 C   0  0  0  0  0  0  0  0  0  0  0  0
   -3.7500   -3.8971    0.0000 C   0  0  0  0  0  0  0  0  0  0  0  0
   -5.2500   -3.8971    0.0000 C   0  0  0  0  0  0  0  0  0  0  0  0
   -6.0000   -5.1962    0.0000 C   0  0  0  0  0  0  0  0  0  0  0  0
   -5.2500   -6.4952    0.0000 C   0  0  0  0  0  0  0  0  0  0  0  0
   -3.7500   -6.4952    0.0000 C   0  0  0  0  0  0  0  0  0  0  0  0
   -3.0000   -5.1962    0.0000 C   0  0  0  0  0  0  0  0  0  0  0  0
   -4.5000   -5.1962    0.0000 C   0  0  0  0  0  0  0  0  0  0  0  0
   -6.0000   -5.1962    0.0000 C   0  0  0  0  0  0  0  0  0  0  0  0
   -6.7500   -6.4952    0.0000 C   0  0  0  0  0  0  0  0  0  0  0  0
   -6.0000   -7.7942    0.0000 C   0  0  0  0  0  0  0  0  0  0  0  0
   -4.5000   -7.7942    0.0000 C   0  0  0  0  0  0  0  0  0  0  0  0
   -3.7500   -6.4952    0.0000 C   0  0  0  0  0  0  0  0  0  0  0  0
   -5.2500   -6.4952    0.0000 C   0  0  0  0  0  0  0  0  0  0  0  0
   -4.5000   -5.1962    0.0000 C   0  0  0  0  0  0  0  0  0  0  0  0
   -5.5420   -4.1172    0.0000 O   0  0  0  0  0  0  0  0  0  0  0  0
   -3.0000   -5.1962    0.0000 N   0  0  0  0  0  0  0  0  0  0  0  0
   -2.2500   -3.8971    0.0000 C   0  0  0  0  0  0  0  0  0  0  0  0
   -0.7500   -3.8971    0.0000 C   0  0  0  0  0  0  0  0  0  0  0  0
    0.0000   -2.5981    0.0000 C   0  0  0  0  0  0  0  0  0  0  0  0
    1.5000   -2.5981    0.0000 C   0  0  0  0  0  0  0  0  0  0  0  0
    2.2500   -1.2990    0.0000 C   0  0  0  0  0  0  0  0  0  0  0  0
    1.5000   -0.0000    0.0000 C   0  0  0  0  0  0  0  0  0  0  0  0
    0.0000   -0.0000    0.0000 C   0  0  0  0  0  0  0  0  0  0  0  0
   -0.7500   -1.2990    0.0000 C   0  0  0  0  0  0  0  0  0  0  0  0
   -3.0000   -2.5981    0.0000 C   0  0  0  0  0  0  0  0  0  0  0  0
   -4.4888   -2.4152    0.0000 O   0  0  0  0  0  0  0  0  0  0  0  0
   -2.2500   -1.2990    0.0000 N   0  0  0  0  0  0  0  0  0  0  0  0
   -3.0000   -0.0000    0.0000 C   0  0  0  0  0  0  0  0  0  0  0  0
   -2.2500    1.2990    0.0000 C   0  0  0  0  0  0  0  0  0  0  0  0
   -3.0000    2.5981    0.0000 C   0  0  0  0  0  0  0  0  0  0  0  0
   -4.1147    3.6018    0.0000 C   0  0  0  0  0  0  0  0  0  0  0  0
   -5.4138    2.8518    0.0000 C   0  0  0  0  0  0  0  0  0  0  0  0
   -5.1019    1.3846    0.0000 C   0  0  0  0  0  0  0  0  0  0  0  0
   -4.5000   -0.0000    0.0000 C   0  0  0  0  0  0  0  0  0  0  0  0
   -3.6101    1.2278    0.0000 C   0  0  0  0  0  0  0  0  0  0  0  0
   -2.8601   -0.0713    0.0000 C   0  0  0  0  0  0  0  0  0  0  0  0
   -1.4047    0.2917    0.0000 O   0  0  0  0  0  0  0  0  0  0  0  0
   -3.6101   -1.3703    0.0000 N   0  0  0  0  0  0  0  0  0  0  0  0
   -2.8601   -2.6694    0.0000 C   0  0  0  0  0  0  0  0  0  0  0  0
   -3.6101   -3.9684    0.0000 C   0  0  0  0  0  0  0  0  0  0  0  0
   -2.8601   -5.2674    0.0000 C   0  0  0  0  0  0  0  0  0  0  0  0
   -3.6101   -6.5665    0.0000 C   0  0  0  0  0  0  0  0  0  0  0  0
   -2.8601   -7.8655    0.0000 C   0  0  0  0  0  0  0  0  0  0  0  0
   -1.3601   -7.8655    0.0000 C   0  0  0  0  0  0  0  0  0  0  0  0
   -0.6101   -6.5665    0.0000 C   0  0  0  0  0  0  0  0  0  0  0  0
   -1.3601   -5.2674    0.0000 C   0  0  0  0  0  0  0  0  0  0  0  0
   -1.3601   -2.6694    0.0000 C   0  0  0  0  0  0  0  0  0  0  0  0
   -0.6101   -1.3703    0.0000 O   0  0  0  0  0  0  0  0  0  0  0  0
   -0.3181   -3.7483    0.0000 O   0  0  0  0  0  0  0  0  0  0  0  0
  1  2  2  0
  2  3  1  0
  3  4  1  0
  4  5  1  0
  5  6  1  0
  6  7  1  0
  7  8  1  0
  8  9  1  0
  9 10  1  0
 10 11  1  0
 10 12  1  0
 12 13  1  0
 13 14  1  0
 14 15  1  0
 15 16  2  0
 16 17  1  0
 17 18  2  0
 18 19  1  0
 19 20  2  0
  2 21  1  0
 21 22  1  0
 22 23  1  0
 23 24  1  0
 24 25  1  0
 25 26  1  0
 25 27  1  0
 27 28  1  0
 28 29  2  0
 28 30  1  0
 30 31  1  0
 31 32  1  0
 32 33  1  0
 33 34  2  0
 34 35  1  0
 35 36  2  0
 36 37  1  0
 37 38  2  0
 31 39  1  0
 39 40  2  0
 39 41  1  0
 41 42  1  0
 42 43  1  0
 43 44  1  0
 44 45  1  0
 45 46  1  0
 46 47  1  0
 47 48  1  0
 47 49  1  0
 49 50  1  0
 50 51  2  0
 50 52  1  0
 52 53  1  0
 53 54  1  0
 54 55  1  0
 55 56  2  0
 56 57  1  0
 57 58  2  0
 58 59  1  0
 59 60  2  0
 53 61  1  0
 61 62  2  0
 61 63  1  0
 11  4  1  0
 20 15  1  0
 26 21  1  0
 38 33  1  0
 48 42  1  0
 60 55  1  0
 12  6  1  0
 27 23  1  0
 49 44  1  0
M  END
>  <Title>  (261) 
idAAQOgen6

$$$$

     RDKit          2D

 15 16  0  0  0  0  0  0  0  0999 V2000
   -2.1513    4.1941    0.0000 C   0  0  0  0  0  0  0  0  0  0  0  0
   -2.8323    2.8576    0.0000 C   0  0  0  0  0  0  0  0  0  0  0  0
   -3.5133    1.5211    0.0000 C   0  0  0  0  0  0  0  0  0  0  0  0
   -4.1688    3.5386    0.0000 C   0  0  0  0  0  0  0  0  0  0  0  0
   -1.4958    2.1766    0.0000 C   0  0  0  0  0  0  0  0  0  0  0  0
   -0.0692    2.6401    0.0000 C   0  0  0  0  0  0  0  0  0  0  0  0
    0.3943    1.2135    0.0000 C   0  0  0  0  0  0  0  0  0  0  0  0
    1.7308    1.8945    0.0000 C   0  0  0  0  0  0  0  0  0  0  0  0
    2.4118    0.5580    0.0000 C   0  0  0  0  0  0  0  0  0  0  0  0
    1.0498    3.2310    0.0000 C   0  0  0  0  0  0  0  0  0  0  0  0
    3.0673    2.5755    0.0000 C   0  0  0  0  0  0  0  0  0  0  0  0
    1.2760    0.0000    0.0000 C   0  0  0  0  0  0  0  0  0  0  0  0
    0.3943   -1.2135    0.0000 C   0  0  0  0  0  0  0  0  0  0  0  0
   -1.0323   -0.7500    0.0000 C   0  0  0  0  0  0  0  0  0  0  0  0
   -1.0323    0.7500    0.0000 C   0  0  0  0  0  0  0  0  0  0  0  0
  1  2  1  0
  2  3  1  0
  2  4  1  0
  2  5  1  0
  5  6  1  0
  6  7  1  0
  7  8  1  0
  8  9  1  0
  8 10  1  0
  8 11  1  0
  7 12  1  0
 12 13  1  0
 13 14  1  0
 14 15  1  0
 15  5  1  0
 15  7  1  0
M  END
>  <Title>  (262) 
idAAQPgen6

$$$$

     RDKit          2D

 21 22  0  0  0  0  0  0  0  0999 V2000
    3.8757   -1.4888    0.0000 C   0  0  0  0  0  0  0  0  0  0  0  0
    3.6929    0.0000    0.0000 C   0  0  0  0  0  0  0  0  0  0  0  0
    3.6929    1.5000    0.0000 C   0  0  0  0  0  0  0  0  0  0  0  0
    5.1929    0.0000    0.0000 C   0  0  0  0  0  0  0  0  0  0  0  0
    2.1929    0.0000    0.0000 C   0  0  0  0  0  0  0  0  0  0  0  0
    1.6798    1.4095    0.0000 C   0  0  0  0  0  0  0  0  0  0  0  0
    0.3808    2.1595    0.0000 C   0  0  0  0  0  0  0  0  0  0  0  0
   -1.0964    1.8991    0.0000 C   0  0  0  0  0  0  0  0  0  0  0  0
   -1.8464    3.1981    0.0000 C   0  0  0  0  0  0  0  0  0  0  0  0
   -1.0964    4.4971    0.0000 C   0  0  0  0  0  0  0  0  0  0  0  0
   -1.8464    5.7962    0.0000 C   0  0  0  0  0  0  0  0  0  0  0  0
   -3.3464    5.7962    0.0000 C   0  0  0  0  0  0  0  0  0  0  0  0
   -4.0964    4.4971    0.0000 C   0  0  0  0  0  0  0  0  0  0  0  0
   -3.3464    3.1981    0.0000 C   0  0  0  0  0  0  0  0  0  0  0  0
   -2.0606    0.7500    0.0000 C   0  0  0  0  0  0  0  0  0  0  0  0
   -2.0606   -0.7500    0.0000 C   0  0  0  0  0  0  0  0  0  0  0  0
   -1.0964   -1.8991    0.0000 C   0  0  0  0  0  0  0  0  0  0  0  0
    0.3808   -2.1595    0.0000 C   0  0  0  0  0  0  0  0  0  0  0  0
    1.6798   -1.4095    0.0000 C   0  0  0  0  0  0  0  0  0  0  0  0
    3.1555   -1.6786    0.0000 C   0  0  0  0  0  0  0  0  0  0  0  0
    2.0257   -2.8691    0.0000 C   0  0  0  0  0  0  0  0  0  0  0  0
  1  2  1  0
  2  3  1  0
  2  4  1  0
  2  5  1  0
  5  6  1  0
  6  7  1  0
  7  8  1  0
  8  9  1  0
  9 10  1  0
 10 11  1  0
 11 12  1  0
 12 13  1  0
 13 14  1  0
  8 15  1  0
 15 16  1  0
 16 17  1  0
 17 18  1  0
 18 19  1  0
 19 20  1  0
 19 21  1  0
 19  5  1  0
 14  9  1  0
M  END
>  <Title>  (263) 
idAAQQgen6

$$$$

     RDKit          2D

 10 11  0  0  0  0  0  0  0  0999 V2000
    2.9095   -2.0850    0.0000 N   0  0  0  0  0  0  0  0  0  0  0  0
    1.5000   -2.5981    0.0000 C   0  0  0  0  0  0  0  0  0  0  0  0
    0.7500   -1.2990    0.0000 C   0  0  0  0  0  0  0  0  0  0  0  0
    1.5000    0.0000    0.0000 C   0  0  0  0  0  0  0  0  0  0  0  0
    0.7500    1.2990    0.0000 C   0  0  0  0  0  0  0  0  0  0  0  0
   -0.7500    1.2990    0.0000 C   0  0  0  0  0  0  0  0  0  0  0  0
   -1.5000    0.0000    0.0000 C   0  0  0  0  0  0  0  0  0  0  0  0
   -0.7500   -1.2990    0.0000 C   0  0  0  0  0  0  0  0  0  0  0  0
    1.7605   -4.0753    0.0000 C   0  0  0  0  0  0  0  0  0  0  0  0
    0.3509   -3.5623    0.0000 C   0  0  0  0  0  0  0  0  0  0  0  0
  1  2  1  0
  2  3  1  0
  3  4  2  0
  4  5  1  0
  5  6  2  0
  6  7  1  0
  7  8  2  0
  2  9  1  0
  9 10  1  0
 10  2  1  0
  8  3  1  0
M  END
>  <Title>  (264) 
idAAQRgen6

$$$$

     RDKit          2D

 51 55  0  0  0  0  0  0  0  0999 V2000
    3.3630   -1.4554    0.0000 C   0  0  0  0  0  0  0  0  0  0  0  0
    3.0000    0.0000    0.0000 C   0  0  0  0  0  0  0  0  0  0  0  0
    3.0000    1.5000    0.0000 C   0  0  0  0  0  0  0  0  0  0  0  0
    4.4554    0.3630    0.0000 C   0  0  0  0  0  0  0  0  0  0  0  0
    1.5000    0.0000    0.0000 C   0  0  0  0  0  0  0  0  0  0  0  0
    0.7500   -1.2990    0.0000 C   0  0  0  0  0  0  0  0  0  0  0  0
   -0.7500   -1.2990    0.0000 C   0  0  0  0  0  0  0  0  0  0  0  0
   -1.5000    0.0000    0.0000 C   0  0  0  0  0  0  0  0  0  0  0  0
   -0.7500    1.2990    0.0000 C   0  0  0  0  0  0  0  0  0  0  0  0
   -1.5000    2.5981    0.0000 C   0  0  0  0  0  0  0  0  0  0  0  0
   -0.2010    3.3481    0.0000 C   0  0  0  0  0  0  0  0  0  0  0  0
   -2.7990    1.8481    0.0000 C   0  0  0  0  0  0  0  0  0  0  0  0
   -2.2500    3.8971    0.0000 C   0  0  0  0  0  0  0  0  0  0  0  0
    0.7500    1.2990    0.0000 C   0  0  0  0  0  0  0  0  0  0  0  0
   -0.0000   -0.0000    0.0000 C   0  0  0  0  0  0  0  0  0  0  0  0
    1.5000   -0.0000    0.0000 C   0  0  0  0  0  0  0  0  0  0  0  0
    2.0861    1.3808    0.0000 O   0  0  0  0  0  0  0  0  0  0  0  0
    2.2500   -1.2990    0.0000 N   0  0  0  0  0  0  0  0  0  0  0  0
    3.7500   -1.2990    0.0000 C   0  0  0  0  0  0  0  0  0  0  0  0
    4.5000   -2.5981    0.0000 C   0  0  0  0  0  0  0  0  0  0  0  0
    6.0000   -2.5981    0.0000 C   0  0  0  0  0  0  0  0  0  0  0  0
    6.7500   -3.8971    0.0000 C   0  0  0  0  0  0  0  0  0  0  0  0
    8.2500   -3.8971    0.0000 C   0  0  0  0  0  0  0  0  0  0  0  0
    9.0000   -2.5981    0.0000 C   0  0  0  0  0  0  0  0  0  0  0  0
    8.2500   -1.2990    0.0000 C   0  0  0  0  0  0  0  0  0  0  0  0
    6.7500   -1.2990    0.0000 C   0  0  0  0  0  0  0  0  0  0  0  0
    4.5000   -0.0000    0.0000 C   0  0  0  0  0  0  0  0  0  0  0  0
    3.9139    1.3808    0.0000 O   0  0  0  0  0  0  0  0  0  0  0  0
    6.0000   -0.0000    0.0000 N   0  0  0  0  0  0  0  0  0  0  0  0
    6.7500    1.2990    0.0000 C   0  0  0  0  0  0  0  0  0  0  0  0
    8.2500    1.2990    0.0000 C   0  0  0  0  0  0  0  0  0  0  0  0
    9.0000    2.5981    0.0000 C   0  0  0  0  0  0  0  0  0  0  0  0
   10.5000    2.5981    0.0000 C   0  0  0  0  0  0  0  0  0  0  0  0
   11.2500    3.8971    0.0000 C   0  0  0  0  0  0  0  0  0  0  0  0
   10.5000    5.1962    0.0000 C   0  0  0  0  0  0  0  0  0  0  0  0
    9.0000    5.1962    0.0000 C   0  0  0  0  0  0  0  0  0  0  0  0
    8.2500    3.8971    0.0000 C   0  0  0  0  0  0  0  0  0  0  0  0
    6.0000    2.5981    0.0000 C   0  0  0  0  0  0  0  0  0  0  0  0
    4.5000    2.5981    0.0000 O   0  0  0  0  0  0  0  0  0  0  0  0
    6.7500    3.8971    0.0000 N   0  0  0  0  0  0  0  0  0  0  0  0
    6.0000    5.1962    0.0000 C   0  0  0  0  0  0  0  0  0  0  0  0
    6.7500    6.4952    0.0000 C   0  0  0  0  0  0  0  0  0  0  0  0
    6.0000    7.7942    0.0000 C   0  0  0  0  0  0  0  0  0  0  0  0
    6.7500    9.0933    0.0000 C   0  0  0  0  0  0  0  0  0  0  0  0
    6.0000   10.3923    0.0000 C   0  0  0  0  0  0  0  0  0  0  0  0
    4.5000   10.3923    0.0000 C   0  0  0  0  0  0  0  0  0  0  0  0
    3.7500    9.0933    0.0000 C   0  0  0  0  0  0  0  0  0  0  0  0
    4.5000    7.7942    0.0000 C   0  0  0  0  0  0  0  0  0  0  0  0
    4.5000    5.1962    0.0000 C   0  0  0  0  0  0  0  0  0  0  0  0
    3.7500    3.8971    0.0000 O   0  0  0  0  0  0  0  0  0  0  0  0
    3.7500    6.4952    0.0000 O   0  0  0  0  0  0  0  0  0  0  0  0
  1  2  1  0
  2  3  1  0
  2  4  1  0
  2  5  1  0
  5  6  1  0
  6  7  1  0
  7  8  1  0
  8  9  1  0
  9 10  1  0
 10 11  1  0
 10 12  1  0
 10 13  1  0
  9 14  1  0
  9 15  1  0
 15 16  1  0
 16 17  2  0
 16 18  1  0
 18 19  1  0
 19 20  1  0
 20 21  1  0
 21 22  2  0
 22 23  1  0
 23 24  2  0
 24 25  1  0
 25 26  2  0
 19 27  1  0
 27 28  2  0
 27 29  1  0
 29 30  1  0
 30 31  1  0
 31 32  1  0
 32 33  2  0
 33 34  1  0
 34 35  2  0
 35 36  1  0
 36 37  2  0
 30 38  1  0
 38 39  2  0
 38 40  1  0
 40 41  1  0
 41 42  1  0
 42 43  1  0
 43 44  2  0
 44 45  1  0
 45 46  2  0
 46 47  1  0
 47 48  2  0
 41 49  1  0
 49 50  2  0
 49 51  1  0
 14  5  1  0
 26 21  1  0
 37 32  1  0
 48 43  1  0
 15  7  1  0
M  END
>  <Title>  (265) 
idAAQSgen6

$$$$

     RDKit          2D

 36 41  0  0  0  0  0  0  0  0999 V2000
   -5.2564    0.4091    0.0000 O   0  0  0  0  0  0  0  0  0  0  0  0
   -4.2865    1.5533    0.0000 C   0  0  0  0  0  0  0  0  0  0  0  0
   -4.7925    2.9654    0.0000 N   0  0  0  0  0  0  0  0  0  0  0  0
   -6.2684    3.2332    0.0000 C   0  0  0  0  0  0  0  0  0  0  0  0
   -6.7744    4.6453    0.0000 C   0  0  0  0  0  0  0  0  0  0  0  0
   -8.2503    4.9131    0.0000 C   0  0  0  0  0  0  0  0  0  0  0  0
   -9.7367    4.7118    0.0000 C   0  0  0  0  0  0  0  0  0  0  0  0
  -10.0046    3.2359    0.0000 C   0  0  0  0  0  0  0  0  0  0  0  0
   -8.6837    2.5251    0.0000 C   0  0  0  0  0  0  0  0  0  0  0  0
   -7.2383    2.0890    0.0000 C   0  0  0  0  0  0  0  0  0  0  0  0
   -7.5995    3.5617    0.0000 N   0  0  0  0  0  0  0  0  0  0  0  0
   -6.1236    3.2939    0.0000 C   0  0  0  0  0  0  0  0  0  0  0  0
   -5.6176    1.8818    0.0000 C   0  0  0  0  0  0  0  0  0  0  0  0
   -4.1417    1.6139    0.0000 C   0  0  0  0  0  0  0  0  0  0  0  0
   -3.6357    0.2019    0.0000 C   0  0  0  0  0  0  0  0  0  0  0  0
   -2.1598   -0.0660    0.0000 C   0  0  0  0  0  0  0  0  0  0  0  0
   -1.1899    1.0783    0.0000 C   0  0  0  0  0  0  0  0  0  0  0  0
   -1.6959    2.4904    0.0000 C   0  0  0  0  0  0  0  0  0  0  0  0
   -3.1718    2.7582    0.0000 C   0  0  0  0  0  0  0  0  0  0  0  0
   -2.8106    1.2855    0.0000 C   0  0  0  0  0  0  0  0  0  0  0  0
   -1.9290    2.4990    0.0000 C   0  0  0  0  0  0  0  0  0  0  0  0
   -0.4305    2.5663    0.0000 O   0  0  0  0  0  0  0  0  0  0  0  0
    0.3943    1.2135    0.0000 C   0  0  0  0  0  0  0  0  0  0  0  0
    1.2760    0.0000    0.0000 C   0  0  0  0  0  0  0  0  0  0  0  0
    0.3943   -1.2135    0.0000 C   0  0  0  0  0  0  0  0  0  0  0  0
   -1.0323   -0.7500    0.0000 C   0  0  0  0  0  0  0  0  0  0  0  0
   -2.4116   -0.1605    0.0000 C   0  0  0  0  0  0  0  0  0  0  0  0
   -1.0323    0.7500    0.0000 N   0  0  0  0  0  0  0  0  0  0  0  0
   -2.2458    1.6317    0.0000 C   0  0  0  0  0  0  0  0  0  0  0  0
   -2.0890    3.1235    0.0000 C   0  0  0  0  0  0  0  0  0  0  0  0
   -3.3025    4.0051    0.0000 C   0  0  0  0  0  0  0  0  0  0  0  0
   -3.1458    5.4969    0.0000 C   0  0  0  0  0  0  0  0  0  0  0  0
   -4.3593    6.3786    0.0000 C   0  0  0  0  0  0  0  0  0  0  0  0
   -5.7296    5.7685    0.0000 C   0  0  0  0  0  0  0  0  0  0  0  0
   -5.8864    4.2767    0.0000 C   0  0  0  0  0  0  0  0  0  0  0  0
   -4.6729    3.3950    0.0000 C   0  0  0  0  0  0  0  0  0  0  0  0
  1  2  2  0
  2  3  1  0
  3  4  1  0
  4  5  1  0
  5  6  1  0
  6  7  1  0
  7  8  1  0
  8  9  1  0
  9 10  1  0
  9 11  1  0
 11 12  1  0
 12 13  1  0
 13 14  1  0
 14 15  2  0
 15 16  1  0
 16 17  2  0
 17 18  1  0
 18 19  2  0
  2 20  1  0
 20 21  1  0
 21 22  1  0
 22 23  1  0
 23 24  1  0
 24 25  1  0
 25 26  1  0
 26 27  1  0
 26 28  1  0
 28 29  1  0
 29 30  1  0
 30 31  1  0
 31 32  2  0
 32 33  1  0
 33 34  2  0
 34 35  1  0
 35 36  2  0
 10  4  1  0
 19 14  1  0
 27 20  1  0
 36 31  1  0
 11  6  1  0
 28 23  1  0
M  END
>  <Title>  (266) 
idAAQTgen6

$$$$

     RDKit          2D

 38 43  0  0  0  0  0  0  0  0999 V2000
    2.2500   -1.2990    0.0000 C   0  0  0  0  0  0  0  0  0  0  0  0
    0.7500   -1.2990    0.0000 C   0  0  0  0  0  0  0  0  0  0  0  0
    1.5000    0.0000    0.0000 C   0  0  0  0  0  0  0  0  0  0  0  0
    0.7500    1.2990    0.0000 C   0  0  0  0  0  0  0  0  0  0  0  0
   -0.7500    1.2990    0.0000 C   0  0  0  0  0  0  0  0  0  0  0  0
   -1.5000    0.0000    0.0000 C   0  0  0  0  0  0  0  0  0  0  0  0
   -2.3816    1.2136    0.0000 O   0  0  0  0  0  0  0  0  0  0  0  0
   -2.6491   -0.9642    0.0000 C   0  0  0  0  0  0  0  0  0  0  0  0
   -2.3886   -2.4414    0.0000 O   0  0  0  0  0  0  0  0  0  0  0  0
   -4.0586   -0.4512    0.0000 N   0  0  0  0  0  0  0  0  0  0  0  0
   -5.2077   -1.4153    0.0000 C   0  0  0  0  0  0  0  0  0  0  0  0
   -6.6172   -0.9023    0.0000 C   0  0  0  0  0  0  0  0  0  0  0  0
   -7.7663   -1.8665    0.0000 C   0  0  0  0  0  0  0  0  0  0  0  0
   -8.5612   -3.1386    0.0000 C   0  0  0  0  0  0  0  0  0  0  0  0
   -7.5970   -4.2876    0.0000 C   0  0  0  0  0  0  0  0  0  0  0  0
   -6.2062   -3.7257    0.0000 C   0  0  0  0  0  0  0  0  0  0  0  0
   -4.9472   -2.8925    0.0000 C   0  0  0  0  0  0  0  0  0  0  0  0
   -6.3108   -2.2294    0.0000 N   0  0  0  0  0  0  0  0  0  0  0  0
   -5.1618   -1.2652    0.0000 C   0  0  0  0  0  0  0  0  0  0  0  0
   -5.4222    0.2120    0.0000 C   0  0  0  0  0  0  0  0  0  0  0  0
   -4.2732    1.1762    0.0000 C   0  0  0  0  0  0  0  0  0  0  0  0
   -2.8636    0.6632    0.0000 C   0  0  0  0  0  0  0  0  0  0  0  0
   -1.7146    1.6274    0.0000 C   0  0  0  0  0  0  0  0  0  0  0  0
   -1.9750    3.1046    0.0000 C   0  0  0  0  0  0  0  0  0  0  0  0
   -3.3846    3.6176    0.0000 C   0  0  0  0  0  0  0  0  0  0  0  0
   -4.5336    2.6534    0.0000 C   0  0  0  0  0  0  0  0  0  0  0  0
   -0.7500   -1.2990    0.0000 C   0  0  0  0  0  0  0  0  0  0  0  0
   -1.5000   -2.5981    0.0000 C   0  0  0  0  0  0  0  0  0  0  0  0
   -0.7500   -3.8971    0.0000 C   0  0  0  0  0  0  0  0  0  0  0  0
    0.7500   -3.8971    0.0000 C   0  0  0  0  0  0  0  0  0  0  0  0
    1.5000   -2.5981    0.0000 C   0  0  0  0  0  0  0  0  0  0  0  0
    3.0000   -2.5981    0.0000 C   0  0  0  0  0  0  0  0  0  0  0  0
    3.7500   -3.8971    0.0000 C   0  0  0  0  0  0  0  0  0  0  0  0
    5.2500   -3.8971    0.0000 C   0  0  0  0  0  0  0  0  0  0  0  0
    6.1317   -2.6836    0.0000 C   0  0  0  0  0  0  0  0  0  0  0  0
    7.5583   -3.1471    0.0000 C   0  0  0  0  0  0  0  0  0  0  0  0
    7.5583   -4.6471    0.0000 C   0  0  0  0  0  0  0  0  0  0  0  0
    6.1317   -5.1106    0.0000 C   0  0  0  0  0  0  0  0  0  0  0  0
  1  2  1  0
  2  3  1  0
  3  4  1  0
  4  5  1  0
  5  6  1  0
  6  7  1  0
  6  8  1  0
  8  9  2  0
  8 10  1  0
 10 11  1  0
 11 12  1  0
 12 13  1  0
 13 14  1  0
 14 15  1  0
 15 16  1  0
 16 17  1  0
 16 18  1  0
 18 19  1  0
 19 20  1  0
 20 21  1  0
 21 22  2  0
 22 23  1  0
 23 24  2  0
 24 25  1  0
 25 26  2  0
  6 27  1  0
 27 28  1  0
 28 29  1  0
 29 30  1  0
 30 31  1  0
 31 32  1  0
 32 33  1  0
 33 34  1  0
 34 35  1  0
 35 36  1  0
 36 37  1  0
 37 38  1  0
 27  2  1  0
 38 34  1  0
 31  2  1  0
 17 11  1  0
 26 21  1  0
 18 13  1  0
M  END
>  <Title>  (267) 
idAAQUgen6

$$$$

     RDKit          2D

 20 21  0  0  0  0  0  0  0  0999 V2000
   -0.7500   -6.4952    0.0000 O   0  0  0  0  0  0  0  0  0  0  0  0
   -1.5000   -5.1962    0.0000 C   0  0  0  0  0  0  0  0  0  0  0  0
   -0.7500   -3.8971    0.0000 N   0  0  0  0  0  0  0  0  0  0  0  0
    0.7500   -3.8971    0.0000 C   0  0  0  0  0  0  0  0  0  0  0  0
    1.5000   -2.5981    0.0000 C   0  0  0  0  0  0  0  0  0  0  0  0
    0.7500   -1.2990    0.0000 C   0  0  0  0  0  0  0  0  0  0  0  0
    1.5000    0.0000    0.0000 C   0  0  0  0  0  0  0  0  0  0  0  0
    0.7500    1.2990    0.0000 C   0  0  0  0  0  0  0  0  0  0  0  0
   -0.7500    1.2990    0.0000 C   0  0  0  0  0  0  0  0  0  0  0  0
   -1.5000    0.0000    0.0000 C   0  0  0  0  0  0  0  0  0  0  0  0
   -0.7500   -1.2990    0.0000 C   0  0  0  0  0  0  0  0  0  0  0  0
    1.5000   -5.1962    0.0000 C   0  0  0  0  0  0  0  0  0  0  0  0
    3.0000   -5.1962    0.0000 O   0  0  0  0  0  0  0  0  0  0  0  0
    0.7500   -6.4952    0.0000 O   0  0  0  0  0  0  0  0  0  0  0  0
   -3.0000   -5.1962    0.0000 C   0  0  0  0  0  0  0  0  0  0  0  0
   -3.7500   -3.8971    0.0000 C   0  0  0  0  0  0  0  0  0  0  0  0
   -5.2500   -3.8971    0.0000 C   0  0  0  0  0  0  0  0  0  0  0  0
   -6.0000   -5.1962    0.0000 C   0  0  0  0  0  0  0  0  0  0  0  0
   -5.2500   -6.4952    0.0000 C   0  0  0  0  0  0  0  0  0  0  0  0
   -3.7500   -6.4952    0.0000 C   0  0  0  0  0  0  0  0  0  0  0  0
  1  2  2  0
  2  3  1  0
  3  4  1  0
  4  5  1  0
  5  6  1  0
  6  7  2  0
  7  8  1  0
  8  9  2  0
  9 10  1  0
 10 11  2  0
  4 12  1  0
 12 13  2  0
 12 14  1  0
  2 15  1  0
 15 16  2  0
 16 17  1  0
 17 18  2  0
 18 19  1  0
 19 20  2  0
 11  6  1  0
 20 15  1  0
M  END
>  <Title>  (268) 
idAAQVgen6

$$$$

     RDKit          2D

 42 45  0  0  0  0  0  0  0  0999 V2000
   -0.7500   -6.4952    0.0000 O   0  0  0  0  0  0  0  0  0  0  0  0
   -1.5000   -5.1962    0.0000 C   0  0  0  0  0  0  0  0  0  0  0  0
   -0.7500   -3.8971    0.0000 N   0  0  0  0  0  0  0  0  0  0  0  0
    0.7500   -3.8971    0.0000 C   0  0  0  0  0  0  0  0  0  0  0  0
    1.5000   -2.5981    0.0000 C   0  0  0  0  0  0  0  0  0  0  0  0
    0.7500   -1.2990    0.0000 C   0  0  0  0  0  0  0  0  0  0  0  0
    1.5000    0.0000    0.0000 C   0  0  0  0  0  0  0  0  0  0  0  0
    0.7500    1.2990    0.0000 C   0  0  0  0  0  0  0  0  0  0  0  0
   -0.7500    1.2990    0.0000 C   0  0  0  0  0  0  0  0  0  0  0  0
   -1.5000    0.0000    0.0000 C   0  0  0  0  0  0  0  0  0  0  0  0
   -0.7500   -1.2990    0.0000 C   0  0  0  0  0  0  0  0  0  0  0  0
    1.5000   -5.1962    0.0000 C   0  0  0  0  0  0  0  0  0  0  0  0
    3.0000   -5.1962    0.0000 O   0  0  0  0  0  0  0  0  0  0  0  0
    0.7500   -6.4952    0.0000 N   0  0  0  0  0  0  0  0  0  0  0  0
    1.5000   -7.7942    0.0000 C   0  0  0  0  0  0  0  0  0  0  0  0
    0.7500   -9.0933    0.0000 C   0  0  0  0  0  0  0  0  0  0  0  0
    1.5000  -10.3923    0.0000 C   0  0  0  0  0  0  0  0  0  0  0  0
    0.7500  -11.6913    0.0000 C   0  0  0  0  0  0  0  0  0  0  0  0
    1.5000  -12.9904    0.0000 C   0  0  0  0  0  0  0  0  0  0  0  0
    3.0000  -12.9904    0.0000 C   0  0  0  0  0  0  0  0  0  0  0  0
    3.7500  -11.6913    0.0000 C   0  0  0  0  0  0  0  0  0  0  0  0
    3.0000  -10.3923    0.0000 C   0  0  0  0  0  0  0  0  0  0  0  0
    3.0000   -7.7942    0.0000 C   0  0  0  0  0  0  0  0  0  0  0  0
    3.7500   -6.4952    0.0000 O   0  0  0  0  0  0  0  0  0  0  0  0
    3.7500   -9.0933    0.0000 N   0  0  0  0  0  0  0  0  0  0  0  0
    5.2500   -9.0933    0.0000 C   0  0  0  0  0  0  0  0  0  0  0  0
    6.0000  -10.3923    0.0000 C   0  0  0  0  0  0  0  0  0  0  0  0
    7.5000  -10.3923    0.0000 C   0  0  0  0  0  0  0  0  0  0  0  0
    8.2500  -11.6913    0.0000 C   0  0  0  0  0  0  0  0  0  0  0  0
    9.7500  -11.6913    0.0000 C   0  0  0  0  0  0  0  0  0  0  0  0
   10.5000  -10.3923    0.0000 C   0  0  0  0  0  0  0  0  0  0  0  0
    9.7500   -9.0933    0.0000 C   0  0  0  0  0  0  0  0  0  0  0  0
    8.2500   -9.0933    0.0000 C   0  0  0  0  0  0  0  0  0  0  0  0
    6.0000   -7.7942    0.0000 C   0  0  0  0  0  0  0  0  0  0  0  0
    5.2500   -6.4952    0.0000 O   0  0  0  0  0  0  0  0  0  0  0  0
    7.5000   -7.7942    0.0000 O   0  0  0  0  0  0  0  0  0  0  0  0
   -3.0000   -5.1962    0.0000 C   0  0  0  0  0  0  0  0  0  0  0  0
   -3.7500   -3.8971    0.0000 C   0  0  0  0  0  0  0  0  0  0  0  0
   -5.2500   -3.8971    0.0000 C   0  0  0  0  0  0  0  0  0  0  0  0
   -6.0000   -5.1962    0.0000 C   0  0  0  0  0  0  0  0  0  0  0  0
   -5.2500   -6.4952    0.0000 C   0  0  0  0  0  0  0  0  0  0  0  0
   -3.7500   -6.4952    0.0000 C   0  0  0  0  0  0  0  0  0  0  0  0
  1  2  2  0
  2  3  1  0
  3  4  1  0
  4  5  1  0
  5  6  1  0
  6  7  2  0
  7  8  1  0
  8  9  2  0
  9 10  1  0
 10 11  2  0
  4 12  1  0
 12 13  2  0
 12 14  1  0
 14 15  1  0
 15 16  1  0
 16 17  1  0
 17 18  2  0
 18 19  1  0
 19 20  2  0
 20 21  1  0
 21 22  2  0
 15 23  1  0
 23 24  2  0
 23 25  1  0
 25 26  1  0
 26 27  1  0
 27 28  1  0
 28 29  2  0
 29 30  1  0
 30 31  2  0
 31 32  1  0
 32 33  2  0
 26 34  1  0
 34 35  2  0
 34 36  1  0
  2 37  1  0
 37 38  2  0
 38 39  1  0
 39 40  2  0
 40 41  1  0
 41 42  2  0
 11  6  1  0
 22 17  1  0
 33 28  1  0
 42 37  1  0
M  END
>  <Title>  (269) 
idAAQWgen6

$$$$

     RDKit          2D

 34 39  0  0  0  0  0  0  0  0999 V2000
   -4.8434    3.3705    0.0000 C   0  0  0  0  0  0  0  0  0  0  0  0
   -3.6706    2.4352    0.0000 C   0  0  0  0  0  0  0  0  0  0  0  0
   -4.8434    1.5000    0.0000 C   0  0  0  0  0  0  0  0  0  0  0  0
   -3.0198    3.7867    0.0000 C   0  0  0  0  0  0  0  0  0  0  0  0
   -1.5574    4.1205    0.0000 C   0  0  0  0  0  0  0  0  0  0  0  0
   -0.3846    3.1852    0.0000 C   0  0  0  0  0  0  0  0  0  0  0  0
   -0.3846    1.6852    0.0000 C   0  0  0  0  0  0  0  0  0  0  0  0
    0.7881    2.6205    0.0000 C   0  0  0  0  0  0  0  0  0  0  0  0
    1.0777    1.3515    0.0000 C   0  0  0  0  0  0  0  0  0  0  0  0
    2.0130    2.5242    0.0000 C   0  0  0  0  0  0  0  0  0  0  0  0
    3.4962    2.3006    0.0000 C   0  0  0  0  0  0  0  0  0  0  0  0
    4.5489    3.3692    0.0000 C   0  0  0  0  0  0  0  0  0  0  0  0
    5.8905    2.6982    0.0000 C   0  0  0  0  0  0  0  0  0  0  0  0
    5.6669    1.2150    0.0000 C   0  0  0  0  0  0  0  0  0  0  0  0
    4.1872    0.9693    0.0000 C   0  0  0  0  0  0  0  0  0  0  0  0
    1.7286    0.0000    0.0000 C   0  0  0  0  0  0  0  0  0  0  0  0
    1.0777   -1.3515    0.0000 C   0  0  0  0  0  0  0  0  0  0  0  0
   -0.3846   -1.6852    0.0000 C   0  0  0  0  0  0  0  0  0  0  0  0
   -1.5574   -0.7500    0.0000 C   0  0  0  0  0  0  0  0  0  0  0  0
   -1.5574    0.7500    0.0000 C   0  0  0  0  0  0  0  0  0  0  0  0
   -2.7301   -0.1852    0.0000 C   0  0  0  0  0  0  0  0  0  0  0  0
   -3.0198    1.0838    0.0000 C   0  0  0  0  0  0  0  0  0  0  0  0
   -3.9550   -0.0890    0.0000 C   0  0  0  0  0  0  0  0  0  0  0  0
   -5.4383    0.1346    0.0000 C   0  0  0  0  0  0  0  0  0  0  0  0
   -6.3735   -1.0381    0.0000 C   0  0  0  0  0  0  0  0  0  0  0  0
   -7.8567   -0.8146    0.0000 C   0  0  0  0  0  0  0  0  0  0  0  0
   -8.7920   -1.9873    0.0000 C   0  0  0  0  0  0  0  0  0  0  0  0
   -8.2440   -3.3836    0.0000 C   0  0  0  0  0  0  0  0  0  0  0  0
   -6.7607   -3.6072    0.0000 C   0  0  0  0  0  0  0  0  0  0  0  0
   -7.2320   -0.3535    0.0000 C   0  0  0  0  0  0  0  0  0  0  0  0
   -8.4048    0.5817    0.0000 C   0  0  0  0  0  0  0  0  0  0  0  0
   -9.3400   -0.5910    0.0000 C   0  0  0  0  0  0  0  0  0  0  0  0
   -6.9215    0.3582    0.0000 C   0  0  0  0  0  0  0  0  0  0  0  0
   -5.8255   -2.4345    0.0000 C   0  0  0  0  0  0  0  0  0  0  0  0
  1  2  1  0
  2  3  1  0
  2  4  1  0
  4  5  1  0
  5  6  1  0
  6  7  1  0
  7  8  1  0
  7  9  1  0
  9 10  1  0
 10 11  1  0
 11 12  1  0
 12 13  1  0
 13 14  1  0
 14 15  1  0
  9 16  1  0
 16 17  1  0
 17 18  1  0
 18 19  1  0
 19 20  1  0
 20 21  1  0
 20 22  1  0
 22 23  1  0
 23 24  1  0
 24 25  1  0
 25 26  1  0
 26 27  1  0
 27 28  1  0
 28 29  1  0
 29 30  1  0
 30 31  1  0
 31 32  1  0
 31 33  1  0
 29 34  1  0
 22  2  1  0
 33 25  1  0
 20  7  1  0
 34 25  1  0
 15 11  1  0
 32 27  1  0
M  END
>  <Title>  (270) 
idAAQXgen6

$$$$

     RDKit          2D

 51 57  0  0  0  0  0  0  0  0999 V2000
   -6.4157    1.7466    0.0000 C   0  0  0  0  0  0  0  0  0  0  0  0
   -5.4805    0.5738    0.0000 C   0  0  0  0  0  0  0  0  0  0  0  0
   -4.5453   -0.5989    0.0000 C   0  0  0  0  0  0  0  0  0  0  0  0
   -6.6532   -0.3614    0.0000 C   0  0  0  0  0  0  0  0  0  0  0  0
   -4.3077    1.5090    0.0000 C   0  0  0  0  0  0  0  0  0  0  0  0
   -4.8348    2.9134    0.0000 C   0  0  0  0  0  0  0  0  0  0  0  0
   -4.4357    4.3593    0.0000 C   0  0  0  0  0  0  0  0  0  0  0  0
   -3.2630    5.2946    0.0000 C   0  0  0  0  0  0  0  0  0  0  0  0
   -3.7901    6.6989    0.0000 C   0  0  0  0  0  0  0  0  0  0  0  0
   -2.8374    7.8576    0.0000 C   0  0  0  0  0  0  0  0  0  0  0  0
   -3.3645    9.2619    0.0000 C   0  0  0  0  0  0  0  0  0  0  0  0
   -4.8584    9.3964    0.0000 C   0  0  0  0  0  0  0  0  0  0  0  0
   -5.6848   10.6482    0.0000 C   0  0  0  0  0  0  0  0  0  0  0  0
   -5.2212   12.0748    0.0000 C   0  0  0  0  0  0  0  0  0  0  0  0
   -3.8169   12.6019    0.0000 C   0  0  0  0  0  0  0  0  0  0  0  0
   -2.5292   11.8325    0.0000 C   0  0  0  0  0  0  0  0  0  0  0  0
   -2.3279   10.3461    0.0000 C   0  0  0  0  0  0  0  0  0  0  0  0
   -0.9235   10.8732    0.0000 C   0  0  0  0  0  0  0  0  0  0  0  0
   -1.5015    9.0942    0.0000 C   0  0  0  0  0  0  0  0  0  0  0  0
   -1.7645    5.3619    0.0000 C   0  0  0  0  0  0  0  0  0  0  0  0
   -0.5127    4.5355    0.0000 C   0  0  0  0  0  0  0  0  0  0  0  0
    0.0144    3.1312    0.0000 C   0  0  0  0  0  0  0  0  0  0  0  0
   -0.3846    1.6852    0.0000 C   0  0  0  0  0  0  0  0  0  0  0  0
    0.9030    2.4546    0.0000 C   0  0  0  0  0  0  0  0  0  0  0  0
    1.0777    1.3515    0.0000 C   0  0  0  0  0  0  0  0  0  0  0  0
    2.0130    2.5242    0.0000 C   0  0  0  0  0  0  0  0  0  0  0  0
    3.4962    2.3006    0.0000 C   0  0  0  0  0  0  0  0  0  0  0  0
    4.4315    3.4734    0.0000 C   0  0  0  0  0  0  0  0  0  0  0  0
    4.0324    4.9193    0.0000 C   0  0  0  0  0  0  0  0  0  0  0  0
    5.2843    5.7457    0.0000 C   0  0  0  0  0  0  0  0  0  0  0  0
    6.4570    4.8104    0.0000 C   0  0  0  0  0  0  0  0  0  0  0  0
    5.9300    3.4061    0.0000 C   0  0  0  0  0  0  0  0  0  0  0  0
    1.7286    0.0000    0.0000 C   0  0  0  0  0  0  0  0  0  0  0  0
    1.0777   -1.3515    0.0000 C   0  0  0  0  0  0  0  0  0  0  0  0
   -0.3846   -1.6852    0.0000 C   0  0  0  0  0  0  0  0  0  0  0  0
   -1.5574   -0.7500    0.0000 C   0  0  0  0  0  0  0  0  0  0  0  0
   -1.5574    0.7500    0.0000 C   0  0  0  0  0  0  0  0  0  0  0  0
   -2.5940   -0.3342    0.0000 C   0  0  0  0  0  0  0  0  0  0  0  0
   -3.0559    0.6827    0.0000 C   0  0  0  0  0  0  0  0  0  0  0  0
   -3.4549   -0.7632    0.0000 C   0  0  0  0  0  0  0  0  0  0  0  0
   -2.4022   -1.8318    0.0000 C   0  0  0  0  0  0  0  0  0  0  0  0
   -2.8013   -3.2777    0.0000 C   0  0  0  0  0  0  0  0  0  0  0  0
   -1.7486   -4.3463    0.0000 C   0  0  0  0  0  0  0  0  0  0  0  0
   -2.1477   -5.7923    0.0000 C   0  0  0  0  0  0  0  0  0  0  0  0
   -3.5994   -6.1696    0.0000 C   0  0  0  0  0  0  0  0  0  0  0  0
   -4.6521   -5.1011    0.0000 C   0  0  0  0  0  0  0  0  0  0  0  0
   -1.7428   -3.5699    0.0000 C   0  0  0  0  0  0  0  0  0  0  0  0
   -0.2968   -3.9689    0.0000 C   0  0  0  0  0  0  0  0  0  0  0  0
   -0.6959   -5.4149    0.0000 C   0  0  0  0  0  0  0  0  0  0  0  0
   -1.3495   -2.9004    0.0000 C   0  0  0  0  0  0  0  0  0  0  0  0
   -4.2530   -3.6551    0.0000 C   0  0  0  0  0  0  0  0  0  0  0  0
  1  2  1  0
  2  3  1  0
  2  4  1  0
  2  5  1  0
  5  6  1  0
  6  7  1  0
  7  8  1  0
  8  9  1  0
  9 10  1  0
 10 11  1  0
 11 12  1  0
 12 13  1  0
 13 14  1  0
 14 15  1  0
 15 16  1  0
 16 17  1  0
 17 18  1  0
 17 19  1  0
  8 20  1  0
 20 21  1  0
 21 22  1  0
 22 23  1  0
 23 24  1  0
 23 25  1  0
 25 26  1  0
 26 27  1  0
 27 28  1  0
 28 29  1  0
 29 30  1  0
 30 31  1  0
 31 32  1  0
 25 33  1  0
 33 34  1  0
 34 35  1  0
 35 36  1  0
 36 37  1  0
 37 38  1  0
 37 39  1  0
 39 40  1  0
 40 41  1  0
 41 42  1  0
 42 43  1  0
 43 44  1  0
 44 45  1  0
 45 46  1  0
 46 47  1  0
 47 48  1  0
 48 49  1  0
 48 50  1  0
 46 51  1  0
 39  5  1  0
 50 42  1  0
 17 11  1  0
 37 23  1  0
 51 42  1  0
 32 28  1  0
 49 44  1  0
M  END
>  <Title>  (271) 
idAAQYgen6

$$$$

     RDKit          2D

 35 38  0  0  0  0  0  0  0  0999 V2000
    4.0420   -1.0790    0.0000 C   0  0  0  0  0  0  0  0  0  0  0  0
    3.0000    0.0000    0.0000 N   0  0  0  0  0  0  0  0  0  0  0  0
    3.5861    1.3808    0.0000 C   0  0  0  0  0  0  0  0  0  0  0  0
    1.5000    0.0000    0.0000 C   0  0  0  0  0  0  0  0  0  0  0  0
    0.7500   -1.2990    0.0000 C   0  0  0  0  0  0  0  0  0  0  0  0
   -0.7500   -1.2990    0.0000 C   0  0  0  0  0  0  0  0  0  0  0  0
   -1.5000    0.0000    0.0000 C   0  0  0  0  0  0  0  0  0  0  0  0
   -0.7500    1.2990    0.0000 C   0  0  0  0  0  0  0  0  0  0  0  0
    0.7500    1.2990    0.0000 C   0  0  0  0  0  0  0  0  0  0  0  0
   -0.0000   -0.0000    0.0000 C   0  0  0  0  0  0  0  0  0  0  0  0
    1.5000   -0.0000    0.0000 C   0  0  0  0  0  0  0  0  0  0  0  0
    2.2500    1.2990    0.0000 O   0  0  0  0  0  0  0  0  0  0  0  0
    2.2500   -1.2990    0.0000 N   0  0  0  0  0  0  0  0  0  0  0  0
    3.7500   -1.2990    0.0000 C   0  0  0  0  0  0  0  0  0  0  0  0
    4.5000   -2.5981    0.0000 C   0  0  0  0  0  0  0  0  0  0  0  0
    6.0000   -2.5981    0.0000 C   0  0  0  0  0  0  0  0  0  0  0  0
    6.7500   -3.8971    0.0000 C   0  0  0  0  0  0  0  0  0  0  0  0
    8.2500   -3.8971    0.0000 C   0  0  0  0  0  0  0  0  0  0  0  0
    9.0000   -2.5981    0.0000 C   0  0  0  0  0  0  0  0  0  0  0  0
    8.2500   -1.2990    0.0000 C   0  0  0  0  0  0  0  0  0  0  0  0
    6.7500   -1.2990    0.0000 C   0  0  0  0  0  0  0  0  0  0  0  0
    4.5000   -0.0000    0.0000 C   0  0  0  0  0  0  0  0  0  0  0  0
    3.9139    1.3808    0.0000 O   0  0  0  0  0  0  0  0  0  0  0  0
    6.0000   -0.0000    0.0000 N   0  0  0  0  0  0  0  0  0  0  0  0
    6.7500    1.2990    0.0000 C   0  0  0  0  0  0  0  0  0  0  0  0
    8.2500    1.2990    0.0000 C   0  0  0  0  0  0  0  0  0  0  0  0
    9.0000    2.5981    0.0000 C   0  0  0  0  0  0  0  0  0  0  0  0
   10.5000    2.5981    0.0000 C   0  0  0  0  0  0  0  0  0  0  0  0
   11.2500    3.8971    0.0000 C   0  0  0  0  0  0  0  0  0  0  0  0
   10.5000    5.1962    0.0000 C   0  0  0  0  0  0  0  0  0  0  0  0
    9.0000    5.1962    0.0000 C   0  0  0  0  0  0  0  0  0  0  0  0
    8.2500    3.8971    0.0000 C   0  0  0  0  0  0  0  0  0  0  0  0
    6.0000    2.5981    0.0000 C   0  0  0  0  0  0  0  0  0  0  0  0
    6.7500    3.8971    0.0000 N   0  0  0  0  0  0  0  0  0  0  0  0
    4.5000    2.5981    0.0000 O   0  0  0  0  0  0  0  0  0  0  0  0
  1  2  1  0
  2  3  1  0
  2  4  1  0
  4  5  1  0
  5  6  1  0
  6  7  1  0
  7  8  1  0
  8  9  1  0
  8 10  1  0
 10 11  1  0
 11 12  2  0
 11 13  1  0
 13 14  1  0
 14 15  1  0
 15 16  1  0
 16 17  2  0
 17 18  1  0
 18 19  2  0
 19 20  1  0
 20 21  2  0
 14 22  1  0
 22 23  2  0
 22 24  1  0
 24 25  1  0
 25 26  1  0
 26 27  1  0
 27 28  2  0
 28 29  1  0
 29 30  2  0
 30 31  1  0
 31 32  2  0
 25 33  1  0
 33 34  1  0
 33 35  2  0
  9  4  1  0
 21 16  1  0
 32 27  1  0
 10  6  1  0
M  END
>  <Title>  (272) 
idAAQZgen6

$$$$

     RDKit          2D

 62 68  0  0  0  0  0  0  0  0999 V2000
    8.4720   -3.2619    0.0000 C   0  0  0  0  0  0  0  0  0  0  0  0
    7.1730   -4.0119    0.0000 C   0  0  0  0  0  0  0  0  0  0  0  0
    7.2850   -5.5077    0.0000 C   0  0  0  0  0  0  0  0  0  0  0  0
    8.6814   -6.0557    0.0000 C   0  0  0  0  0  0  0  0  0  0  0  0
    9.0804   -4.6097    0.0000 C   0  0  0  0  0  0  0  0  0  0  0  0
   10.1611   -6.3014    0.0000 C   0  0  0  0  0  0  0  0  0  0  0  0
   10.3847   -7.7847    0.0000 C   0  0  0  0  0  0  0  0  0  0  0  0
    9.0431   -8.4556    0.0000 C   0  0  0  0  0  0  0  0  0  0  0  0
    7.9904   -7.3871    0.0000 C   0  0  0  0  0  0  0  0  0  0  0  0
    6.1855   -6.5279    0.0000 C   0  0  0  0  0  0  0  0  0  0  0  0
    4.7022   -6.3044    0.0000 C   0  0  0  0  0  0  0  0  0  0  0  0
    3.8572   -7.5437    0.0000 O   0  0  0  0  0  0  0  0  0  0  0  0
    3.9522   -5.0053    0.0000 C   0  0  0  0  0  0  0  0  0  0  0  0
    4.5002   -3.6090    0.0000 C   0  0  0  0  0  0  0  0  0  0  0  0
    4.3881   -2.1132    0.0000 C   0  0  0  0  0  0  0  0  0  0  0  0
    3.0367   -1.4624    0.0000 C   0  0  0  0  0  0  0  0  0  0  0  0
    3.3705    0.0000    0.0000 C   0  0  0  0  0  0  0  0  0  0  0  0
    3.0367    1.4624    0.0000 C   0  0  0  0  0  0  0  0  0  0  0  0
    2.1015    2.6351    0.0000 C   0  0  0  0  0  0  0  0  0  0  0  0
    0.7500    3.2860    0.0000 C   0  0  0  0  0  0  0  0  0  0  0  0
   -0.7500    3.2860    0.0000 C   0  0  0  0  0  0  0  0  0  0  0  0
   -2.1015    2.6351    0.0000 C   0  0  0  0  0  0  0  0  0  0  0  0
   -3.0367    1.4624    0.0000 C   0  0  0  0  0  0  0  0  0  0  0  0
   -3.3705    0.0000    0.0000 C   0  0  0  0  0  0  0  0  0  0  0  0
   -3.0367   -1.4624    0.0000 C   0  0  0  0  0  0  0  0  0  0  0  0
   -2.1015   -2.6351    0.0000 C   0  0  0  0  0  0  0  0  0  0  0  0
   -0.7500   -3.2860    0.0000 C   0  0  0  0  0  0  0  0  0  0  0  0
    0.7500   -3.2860    0.0000 C   0  0  0  0  0  0  0  0  0  0  0  0
    2.1015   -2.6351    0.0000 C   0  0  0  0  0  0  0  0  0  0  0  0
    3.3852   -3.4110    0.0000 C   0  0  0  0  0  0  0  0  0  0  0  0
    2.2135   -4.1309    0.0000 C   0  0  0  0  0  0  0  0  0  0  0  0
    0.9742   -4.9759    0.0000 C   0  0  0  0  0  0  0  0  0  0  0  0
    1.0863   -6.4717    0.0000 C   0  0  0  0  0  0  0  0  0  0  0  0
   -0.1531   -7.3167    0.0000 C   0  0  0  0  0  0  0  0  0  0  0  0
   -1.5045   -6.6659    0.0000 O   0  0  0  0  0  0  0  0  0  0  0  0
   -0.0410   -8.8125    0.0000 C   0  0  0  0  0  0  0  0  0  0  0  0
    1.4349   -8.5447    0.0000 O   0  0  0  0  0  0  0  0  0  0  0  0
    0.3797  -10.2523    0.0000 C   0  0  0  0  0  0  0  0  0  0  0  0
   -0.8597  -11.0973    0.0000 C   0  0  0  0  0  0  0  0  0  0  0  0
   -2.0463  -10.1797    0.0000 C   0  0  0  0  0  0  0  0  0  0  0  0
   -1.5403   -8.7676    0.0000 C   0  0  0  0  0  0  0  0  0  0  0  0
   -0.3773   -4.3251    0.0000 C   0  0  0  0  0  0  0  0  0  0  0  0
   -0.6274   -3.5682    0.0000 O   0  0  0  0  0  0  0  0  0  0  0  0
   -1.6166   -5.1701    0.0000 C   0  0  0  0  0  0  0  0  0  0  0  0
   -2.9681   -4.5193    0.0000 O   0  0  0  0  0  0  0  0  0  0  0  0
    3.0170   -3.3855    0.0000 C   0  0  0  0  0  0  0  0  0  0  0  0
    2.8750   -1.8922    0.0000 C   0  0  0  0  0  0  0  0  0  0  0  0
    2.7934   -4.8687    0.0000 C   0  0  0  0  0  0  0  0  0  0  0  0
    1.5337   -3.1619    0.0000 C   0  0  0  0  0  0  0  0  0  0  0  0
    5.9336   -3.1669    0.0000 C   0  0  0  0  0  0  0  0  0  0  0  0
    6.1572   -1.6836    0.0000 C   0  0  0  0  0  0  0  0  0  0  0  0
    7.5535   -1.1356    0.0000 C   0  0  0  0  0  0  0  0  0  0  0  0
    7.7770    0.3476    0.0000 C   0  0  0  0  0  0  0  0  0  0  0  0
    9.1733    0.8956    0.0000 C   0  0  0  0  0  0  0  0  0  0  0  0
    9.3969    2.3789    0.0000 C   0  0  0  0  0  0  0  0  0  0  0  0
    8.2242    3.3141    0.0000 C   0  0  0  0  0  0  0  0  0  0  0  0
    6.8278    2.7661    0.0000 C   0  0  0  0  0  0  0  0  0  0  0  0
    8.8628    0.1840    0.0000 C   0  0  0  0  0  0  0  0  0  0  0  0
   10.3461   -0.0396    0.0000 C   0  0  0  0  0  0  0  0  0  0  0  0
   10.5697    1.4436    0.0000 C   0  0  0  0  0  0  0  0  0  0  0  0
    8.9498   -0.5876    0.0000 C   0  0  0  0  0  0  0  0  0  0  0  0
    6.6043    1.2828    0.0000 C   0  0  0  0  0  0  0  0  0  0  0  0
  1  2  1  0
  2  3  1  0
  3  4  1  0
  4  5  1  0
  4  6  1  0
  6  7  1  0
  7  8  1  0
  8  9  1  0
  3 10  1  0
 10 11  1  0
 11 12  1  0
 11 13  1  0
 13 14  1  0
 14 15  1  0
 15 16  1  0
 16 17  1  0
 17 18  1  0
 18 19  1  0
 19 20  1  0
 20 21  1  0
 21 22  1  0
 22 23  1  0
 23 24  1  0
 24 25  1  0
 25 26  1  0
 26 27  1  0
 27 28  1  0
 28 29  1  0
 29 30  1  0
 29 31  1  0
 31 32  1  0
 32 33  1  0
 33 34  1  0
 34 35  1  0
 34 36  1  0
 36 37  1  0
 36 38  1  0
 38 39  1  0
 39 40  1  0
 40 41  1  0
 32 42  1  0
 42 43  1  0
 42 44  1  0
 44 45  1  0
 14 46  1  0
 46 47  1  0
 46 48  1  0
 46 49  1  0
 14 50  1  0
 50 51  1  0
 51 52  1  0
 52 53  1  0
 53 54  1  0
 54 55  1  0
 55 56  1  0
 56 57  1  0
 57 58  1  0
 58 59  1  0
 59 60  1  0
 59 61  1  0
 57 62  1  0
 50  2  1  0
 61 53  1  0
  9  4  1  0
 29 16  1  0
 41 36  1  0
 62 53  1  0
 60 55  1  0
M  END
>  <Title>  (273) 
idAARAgen6

$$$$

     RDKit          2D

 27 28  0  0  0  0  0  0  0  0999 V2000
    3.6929    0.0000    0.0000 C   0  0  0  0  0  0  0  0  0  0  0  0
    2.1929    0.0000    0.0000 C   0  0  0  0  0  0  0  0  0  0  0  0
    1.6798    1.4095    0.0000 C   0  0  0  0  0  0  0  0  0  0  0  0
    0.3808    2.1595    0.0000 C   0  0  0  0  0  0  0  0  0  0  0  0
   -1.0964    1.8991    0.0000 C   0  0  0  0  0  0  0  0  0  0  0  0
   -1.8464    3.1981    0.0000 C   0  0  0  0  0  0  0  0  0  0  0  0
   -3.2272    2.6120    0.0000 C   0  0  0  0  0  0  0  0  0  0  0  0
   -0.5474    3.9481    0.0000 C   0  0  0  0  0  0  0  0  0  0  0  0
   -2.5964    4.4971    0.0000 C   0  0  0  0  0  0  0  0  0  0  0  0
   -2.0606    0.7500    0.0000 C   0  0  0  0  0  0  0  0  0  0  0  0
   -3.4976    0.3198    0.0000 C   0  0  0  0  0  0  0  0  0  0  0  0
   -3.0315    1.8934    0.0000 C   0  0  0  0  0  0  0  0  0  0  0  0
   -2.0606   -0.7500    0.0000 C   0  0  0  0  0  0  0  0  0  0  0  0
   -1.0964   -1.8991    0.0000 C   0  0  0  0  0  0  0  0  0  0  0  0
    0.3808   -2.1595    0.0000 C   0  0  0  0  0  0  0  0  0  0  0  0
    1.6798   -1.4095    0.0000 C   0  0  0  0  0  0  0  0  0  0  0  0
    2.8289   -2.3737    0.0000 C   0  0  0  0  0  0  0  0  0  0  0  0
    2.5684   -3.8509    0.0000 C   0  0  0  0  0  0  0  0  0  0  0  0
    3.7175   -4.8151    0.0000 C   0  0  0  0  0  0  0  0  0  0  0  0
    5.0847   -4.1982    0.0000 C   0  0  0  0  0  0  0  0  0  0  0  0
    6.4196   -4.8825    0.0000 C   0  0  0  0  0  0  0  0  0  0  0  0
    6.7168   -6.3528    0.0000 C   0  0  0  0  0  0  0  0  0  0  0  0
    5.7526   -7.5018    0.0000 C   0  0  0  0  0  0  0  0  0  0  0  0
    4.2531   -7.4644    0.0000 C   0  0  0  0  0  0  0  0  0  0  0  0
    3.3473   -6.2687    0.0000 C   0  0  0  0  0  0  0  0  0  0  0  0
    2.3832   -7.4178    0.0000 C   0  0  0  0  0  0  0  0  0  0  0  0
    2.0125   -5.5844    0.0000 C   0  0  0  0  0  0  0  0  0  0  0  0
  1  2  1  0
  2  3  1  0
  3  4  1  0
  4  5  1  0
  5  6  1  0
  6  7  1  0
  6  8  1  0
  6  9  1  0
  5 10  1  0
 10 11  1  0
 10 12  1  0
 10 13  1  0
 13 14  1  0
 14 15  1  0
 15 16  1  0
 16 17  1  0
 17 18  1  0
 18 19  1  0
 19 20  1  0
 20 21  1  0
 21 22  1  0
 22 23  1  0
 23 24  1  0
 24 25  1  0
 25 26  1  0
 25 27  1  0
 16  2  1  0
 25 19  1  0
M  END
>  <Title>  (274) 
idAARBgen6

$$$$

     RDKit          2D

 72 76  0  0  0  0  0  0  0  0999 V2000
    3.8659    4.4172    0.0000 C   0  0  0  0  0  0  0  0  0  0  0  0
    2.4923    3.8147    0.0000 C   0  0  0  0  0  0  0  0  0  0  0  0
    2.4923    5.3147    0.0000 C   0  0  0  0  0  0  0  0  0  0  0  0
    3.7913    6.0647    0.0000 C   0  0  0  0  0  0  0  0  0  0  0  0
    5.0903    5.3147    0.0000 C   0  0  0  0  0  0  0  0  0  0  0  0
    6.3894    6.0647    0.0000 C   0  0  0  0  0  0  0  0  0  0  0  0
    7.6884    5.3147    0.0000 O   0  0  0  0  0  0  0  0  0  0  0  0
    6.3894    7.5647    0.0000 C   0  0  0  0  0  0  0  0  0  0  0  0
    4.8976    7.4079    0.0000 O   0  0  0  0  0  0  0  0  0  0  0  0
    6.0775    9.0319    0.0000 C   0  0  0  0  0  0  0  0  0  0  0  0
    7.3765    9.7819    0.0000 C   0  0  0  0  0  0  0  0  0  0  0  0
    8.4913    8.7782    0.0000 C   0  0  0  0  0  0  0  0  0  0  0  0
    7.8811    7.4079    0.0000 C   0  0  0  0  0  0  0  0  0  0  0  0
    3.7913    7.5647    0.0000 C   0  0  0  0  0  0  0  0  0  0  0  0
    2.4923    8.3147    0.0000 O   0  0  0  0  0  0  0  0  0  0  0  0
    5.0903    8.3147    0.0000 C   0  0  0  0  0  0  0  0  0  0  0  0
    5.0903    9.8147    0.0000 O   0  0  0  0  0  0  0  0  0  0  0  0
    1.1186    4.4172    0.0000 C   0  0  0  0  0  0  0  0  0  0  0  0
   -0.3763    4.5411    0.0000 C   0  0  0  0  0  0  0  0  0  0  0  0
   -1.8304    4.1729    0.0000 C   0  0  0  0  0  0  0  0  0  0  0  0
   -3.0861    3.3524    0.0000 C   0  0  0  0  0  0  0  0  0  0  0  0
   -4.0075    2.1687    0.0000 C   0  0  0  0  0  0  0  0  0  0  0  0
   -4.4945    0.7500    0.0000 C   0  0  0  0  0  0  0  0  0  0  0  0
   -4.4945   -0.7500    0.0000 C   0  0  0  0  0  0  0  0  0  0  0  0
   -4.0075   -2.1687    0.0000 C   0  0  0  0  0  0  0  0  0  0  0  0
   -3.0861   -3.3524    0.0000 C   0  0  0  0  0  0  0  0  0  0  0  0
   -1.8304   -4.1729    0.0000 C   0  0  0  0  0  0  0  0  0  0  0  0
   -0.3763   -4.5411    0.0000 C   0  0  0  0  0  0  0  0  0  0  0  0
    1.1186   -4.4172    0.0000 C   0  0  0  0  0  0  0  0  0  0  0  0
    2.4923   -3.8147    0.0000 C   0  0  0  0  0  0  0  0  0  0  0  0
    3.5958   -2.7988    0.0000 C   0  0  0  0  0  0  0  0  0  0  0  0
    4.3098   -1.4795    0.0000 C   0  0  0  0  0  0  0  0  0  0  0  0
    4.5567    0.0000    0.0000 C   0  0  0  0  0  0  0  0  0  0  0  0
    4.3098    1.4795    0.0000 C   0  0  0  0  0  0  0  0  0  0  0  0
    3.5958    2.7988    0.0000 C   0  0  0  0  0  0  0  0  0  0  0  0
    4.7795    3.7201    0.0000 C   0  0  0  0  0  0  0  0  0  0  0  0
    6.1693    3.1556    0.0000 C   0  0  0  0  0  0  0  0  0  0  0  0
    6.3753    1.6698    0.0000 O   0  0  0  0  0  0  0  0  0  0  0  0
    7.3530    4.0769    0.0000 N   0  0  0  0  0  0  0  0  0  0  0  0
    8.7427    3.5125    0.0000 C   0  0  0  0  0  0  0  0  0  0  0  0
    9.9265    4.4338    0.0000 C   0  0  0  0  0  0  0  0  0  0  0  0
   11.3162    3.8693    0.0000 C   0  0  0  0  0  0  0  0  0  0  0  0
   11.5222    2.3835    0.0000 C   0  0  0  0  0  0  0  0  0  0  0  0
   12.9120    1.8191    0.0000 C   0  0  0  0  0  0  0  0  0  0  0  0
   14.0957    2.7404    0.0000 C   0  0  0  0  0  0  0  0  0  0  0  0
   13.8896    4.2262    0.0000 C   0  0  0  0  0  0  0  0  0  0  0  0
   12.4999    4.7906    0.0000 C   0  0  0  0  0  0  0  0  0  0  0  0
    8.9488    2.0267    0.0000 C   0  0  0  0  0  0  0  0  0  0  0  0
    7.7651    1.1054    0.0000 O   0  0  0  0  0  0  0  0  0  0  0  0
   10.3385    1.4622    0.0000 N   0  0  0  0  0  0  0  0  0  0  0  0
   10.5445   -0.0236    0.0000 C   0  0  0  0  0  0  0  0  0  0  0  0
   11.9343   -0.5880    0.0000 C   0  0  0  0  0  0  0  0  0  0  0  0
   12.1403   -2.0738    0.0000 C   0  0  0  0  0  0  0  0  0  0  0  0
   10.9566   -2.9951    0.0000 C   0  0  0  0  0  0  0  0  0  0  0  0
   11.1626   -4.4809    0.0000 C   0  0  0  0  0  0  0  0  0  0  0  0
   12.5524   -5.0454    0.0000 C   0  0  0  0  0  0  0  0  0  0  0  0
   13.7361   -4.1241    0.0000 C   0  0  0  0  0  0  0  0  0  0  0  0
   13.5301   -2.6383    0.0000 C   0  0  0  0  0  0  0  0  0  0  0  0
    9.3608   -0.9449    0.0000 C   0  0  0  0  0  0  0  0  0  0  0  0
    7.9711   -0.3804    0.0000 O   0  0  0  0  0  0  0  0  0  0  0  0
    9.5669   -2.4307    0.0000 N   0  0  0  0  0  0  0  0  0  0  0  0
    8.3832   -3.3520    0.0000 C   0  0  0  0  0  0  0  0  0  0  0  0
    6.9934   -2.7875    0.0000 C   0  0  0  0  0  0  0  0  0  0  0  0
    5.8097   -3.7088    0.0000 C   0  0  0  0  0  0  0  0  0  0  0  0
    4.4200   -3.1444    0.0000 C   0  0  0  0  0  0  0  0  0  0  0  0
    3.2362   -4.0657    0.0000 C   0  0  0  0  0  0  0  0  0  0  0  0
    3.4423   -5.5515    0.0000 C   0  0  0  0  0  0  0  0  0  0  0  0
    4.8320   -6.1159    0.0000 C   0  0  0  0  0  0  0  0  0  0  0  0
    6.0157   -5.1946    0.0000 C   0  0  0  0  0  0  0  0  0  0  0  0
    8.5892   -4.8378    0.0000 C   0  0  0  0  0  0  0  0  0  0  0  0
    7.4055   -5.7591    0.0000 O   0  0  0  0  0  0  0  0  0  0  0  0
    9.9789   -5.4022    0.0000 O   0  0  0  0  0  0  0  0  0  0  0  0
  1  2  1  0
  2  3  1  0
  3  4  1  0
  4  5  1  0
  5  6  1  0
  6  7  1  0
  6  8  1  0
  8  9  1  0
  8 10  1  0
 10 11  1  0
 11 12  1  0
 12 13  1  0
  4 14  1  0
 14 15  1  0
 14 16  1  0
 16 17  1  0
  2 18  1  0
 18 19  1  0
 19 20  1  0
 20 21  1  0
 21 22  1  0
 22 23  1  0
 23 24  1  0
 24 25  1  0
 25 26  1  0
 26 27  1  0
 27 28  1  0
 28 29  1  0
 29 30  1  0
 30 31  1  0
 31 32  1  0
 32 33  1  0
 33 34  1  0
 34 35  1  0
 35 36  1  0
 36 37  1  0
 37 38  2  0
 37 39  1  0
 39 40  1  0
 40 41  1  0
 41 42  1  0
 42 43  2  0
 43 44  1  0
 44 45  2  0
 45 46  1  0
 46 47  2  0
 40 48  1  0
 48 49  2  0
 48 50  1  0
 50 51  1  0
 51 52  1  0
 52 53  1  0
 53 54  2  0
 54 55  1  0
 55 56  2  0
 56 57  1  0
 57 58  2  0
 51 59  1  0
 59 60  2  0
 59 61  1  0
 61 62  1  0
 62 63  1  0
 63 64  1  0
 64 65  2  0
 65 66  1  0
 66 67  2  0
 67 68  1  0
 68 69  2  0
 62 70  1  0
 70 71  2  0
 70 72  1  0
 35  2  1  0
 47 42  1  0
 58 53  1  0
 69 64  1  0
 13  8  1  0
M  END
>  <Title>  (275) 
idAARCgen6

$$$$

     RDKit          2D

 35 40  0  0  0  0  0  0  0  0999 V2000
   -1.7691    4.1190    0.0000 O   0  0  0  0  0  0  0  0  0  0  0  0
   -3.2463    3.8586    0.0000 C   0  0  0  0  0  0  0  0  0  0  0  0
   -3.4031    2.3668    0.0000 N   0  0  0  0  0  0  0  0  0  0  0  0
   -2.1895    1.4851    0.0000 C   0  0  0  0  0  0  0  0  0  0  0  0
   -0.8192    2.0952    0.0000 C   0  0  0  0  0  0  0  0  0  0  0  0
    0.3943    1.2135    0.0000 C   0  0  0  0  0  0  0  0  0  0  0  0
    1.2760    0.0000    0.0000 C   0  0  0  0  0  0  0  0  0  0  0  0
    0.3943   -1.2135    0.0000 C   0  0  0  0  0  0  0  0  0  0  0  0
   -1.0323   -0.7500    0.0000 C   0  0  0  0  0  0  0  0  0  0  0  0
   -2.3463   -0.0067    0.0000 C   0  0  0  0  0  0  0  0  0  0  0  0
   -1.0323    0.7500    0.0000 N   0  0  0  0  0  0  0  0  0  0  0  0
   -2.2458    1.6317    0.0000 C   0  0  0  0  0  0  0  0  0  0  0  0
   -2.0890    3.1235    0.0000 C   0  0  0  0  0  0  0  0  0  0  0  0
   -3.3025    4.0051    0.0000 C   0  0  0  0  0  0  0  0  0  0  0  0
   -3.1458    5.4969    0.0000 C   0  0  0  0  0  0  0  0  0  0  0  0
   -4.3593    6.3786    0.0000 C   0  0  0  0  0  0  0  0  0  0  0  0
   -5.7296    5.7685    0.0000 C   0  0  0  0  0  0  0  0  0  0  0  0
   -6.9431    6.6502    0.0000 C   0  0  0  0  0  0  0  0  0  0  0  0
   -6.7863    8.1420    0.0000 C   0  0  0  0  0  0  0  0  0  0  0  0
   -7.9999    9.0236    0.0000 C   0  0  0  0  0  0  0  0  0  0  0  0
   -9.3702    8.4135    0.0000 C   0  0  0  0  0  0  0  0  0  0  0  0
   -9.5270    6.9217    0.0000 C   0  0  0  0  0  0  0  0  0  0  0  0
   -8.3134    6.0401    0.0000 N   0  0  0  0  0  0  0  0  0  0  0  0
   -5.8864    4.2767    0.0000 C   0  0  0  0  0  0  0  0  0  0  0  0
   -4.6729    3.3950    0.0000 C   0  0  0  0  0  0  0  0  0  0  0  0
   -4.4598    4.7402    0.0000 N   0  0  0  0  0  0  0  0  0  0  0  0
   -4.3030    6.2320    0.0000 C   0  0  0  0  0  0  0  0  0  0  0  0
   -2.8067    6.3367    0.0000 C   0  0  0  0  0  0  0  0  0  0  0  0
   -1.9679    5.0931    0.0000 C   0  0  0  0  0  0  0  0  0  0  0  0
   -0.4715    5.1977    0.0000 C   0  0  0  0  0  0  0  0  0  0  0  0
    0.1860    6.5459    0.0000 C   0  0  0  0  0  0  0  0  0  0  0  0
   -0.6528    7.7895    0.0000 C   0  0  0  0  0  0  0  0  0  0  0  0
   -2.1491    7.6848    0.0000 C   0  0  0  0  0  0  0  0  0  0  0  0
   -4.6659    7.6875    0.0000 C   0  0  0  0  0  0  0  0  0  0  0  0
   -5.7449    6.6455    0.0000 C   0  0  0  0  0  0  0  0  0  0  0  0
  1  2  2  0
  2  3  1  0
  3  4  1  0
  4  5  1  0
  5  6  1  0
  6  7  1  0
  7  8  1  0
  8  9  1  0
  9 10  1  0
  9 11  1  0
 11 12  1  0
 12 13  1  0
 13 14  1  0
 14 15  2  0
 15 16  1  0
 16 17  2  0
 17 18  1  0
 18 19  2  0
 19 20  1  0
 20 21  2  0
 21 22  1  0
 22 23  2  0
 17 24  1  0
 24 25  2  0
  2 26  1  0
 26 27  1  0
 27 28  1  0
 28 29  2  0
 29 30  1  0
 30 31  2  0
 31 32  1  0
 32 33  2  0
 27 34  1  0
 34 35  1  0
 10  4  1  0
 25 14  1  0
 35 27  1  0
 11  6  1  0
 23 18  1  0
 33 28  1  0
M  END
>  <Title>  (276) 
idAARDgen6

$$$$

     RDKit          2D

 18 19  0  0  0  0  0  0  0  0999 V2000
   -2.5981   -5.5607    0.0000 C   0  0  0  0  0  0  0  0  0  0  0  0
   -1.2990   -4.8107    0.0000 N   0  0  0  0  0  0  0  0  0  0  0  0
    0.0000   -5.5607    0.0000 C   0  0  0  0  0  0  0  0  0  0  0  0
   -1.2990   -3.3107    0.0000 C   0  0  0  0  0  0  0  0  0  0  0  0
   -0.0000   -2.5607    0.0000 C   0  0  0  0  0  0  0  0  0  0  0  0
   -0.0000   -1.0607    0.0000 C   0  0  0  0  0  0  0  0  0  0  0  0
    1.0607    0.0000    0.0000 C   0  0  0  0  0  0  0  0  0  0  0  0
    0.0000    1.0607    0.0000 C   0  0  0  0  0  0  0  0  0  0  0  0
   -1.0607    0.0000    0.0000 C   0  0  0  0  0  0  0  0  0  0  0  0
    1.4266    0.5971    0.0000 C   0  0  0  0  0  0  0  0  0  0  0  0
    2.6401    1.4788    0.0000 C   0  0  0  0  0  0  0  0  0  0  0  0
    4.0104    0.8687    0.0000 O   0  0  0  0  0  0  0  0  0  0  0  0
    2.4833    2.9706    0.0000 N   0  0  0  0  0  0  0  0  0  0  0  0
    3.6968    3.8523    0.0000 C   0  0  0  0  0  0  0  0  0  0  0  0
    2.8152    5.0658    0.0000 C   0  0  0  0  0  0  0  0  0  0  0  0
    4.5785    2.6387    0.0000 C   0  0  0  0  0  0  0  0  0  0  0  0
    4.9104    4.7340    0.0000 C   0  0  0  0  0  0  0  0  0  0  0  0
    1.4266   -0.9029    0.0000 C   0  0  0  0  0  0  0  0  0  0  0  0
  1  2  1  0
  2  3  1  0
  2  4  1  0
  4  5  1  0
  5  6  1  0
  6  7  1  0
  7  8  1  0
  8  9  1  0
  8 10  1  0
 10 11  1  0
 11 12  2  0
 11 13  1  0
 13 14  1  0
 14 15  1  0
 14 16  1  0
 14 17  1  0
 10 18  1  0
  9  6  1  0
 18  6  1  0
M  END
>  <Title>  (277) 
idAAREgen6

$$$$

     RDKit          2D

 61 68  0  0  0  0  0  0  0  0999 V2000
   -4.5850    1.4432    0.0000 O   0  0  0  0  0  0  0  0  0  0  0  0
   -3.4031    2.3668    0.0000 C   0  0  0  0  0  0  0  0  0  0  0  0
   -3.2463    3.8586    0.0000 N   0  0  0  0  0  0  0  0  0  0  0  0
   -4.4598    4.7402    0.0000 C   0  0  0  0  0  0  0  0  0  0  0  0
   -4.4598    6.2402    0.0000 C   0  0  0  0  0  0  0  0  0  0  0  0
   -5.8864    6.7038    0.0000 C   0  0  0  0  0  0  0  0  0  0  0  0
   -6.7681    5.4902    0.0000 C   0  0  0  0  0  0  0  0  0  0  0  0
   -5.8864    4.2767    0.0000 C   0  0  0  0  0  0  0  0  0  0  0  0
   -5.0047    5.4902    0.0000 N   0  0  0  0  0  0  0  0  0  0  0  0
   -3.5047    5.4902    0.0000 C   0  0  0  0  0  0  0  0  0  0  0  0
   -2.7547    6.7893    0.0000 C   0  0  0  0  0  0  0  0  0  0  0  0
   -1.2547    6.7893    0.0000 C   0  0  0  0  0  0  0  0  0  0  0  0
   -0.5047    5.4902    0.0000 C   0  0  0  0  0  0  0  0  0  0  0  0
    0.9953    5.4902    0.0000 C   0  0  0  0  0  0  0  0  0  0  0  0
    1.7453    6.7893    0.0000 C   0  0  0  0  0  0  0  0  0  0  0  0
    0.9953    8.0883    0.0000 C   0  0  0  0  0  0  0  0  0  0  0  0
   -0.5047    8.0883    0.0000 C   0  0  0  0  0  0  0  0  0  0  0  0
   -2.1895    1.4851    0.0000 C   0  0  0  0  0  0  0  0  0  0  0  0
   -0.8192    2.0952    0.0000 C   0  0  0  0  0  0  0  0  0  0  0  0
    0.3943    1.2135    0.0000 C   0  0  0  0  0  0  0  0  0  0  0  0
    1.2760    0.0000    0.0000 C   0  0  0  0  0  0  0  0  0  0  0  0
    0.3943   -1.2135    0.0000 C   0  0  0  0  0  0  0  0  0  0  0  0
   -1.0323   -0.7500    0.0000 C   0  0  0  0  0  0  0  0  0  0  0  0
   -2.3463   -0.0067    0.0000 C   0  0  0  0  0  0  0  0  0  0  0  0
   -1.0323    0.7500    0.0000 C   0  0  0  0  0  0  0  0  0  0  0  0
   -2.2458    1.6317    0.0000 C   0  0  0  0  0  0  0  0  0  0  0  0
   -3.6161    1.0216    0.0000 O   0  0  0  0  0  0  0  0  0  0  0  0
   -2.0890    3.1235    0.0000 N   0  0  0  0  0  0  0  0  0  0  0  0
   -3.3025    4.0051    0.0000 C   0  0  0  0  0  0  0  0  0  0  0  0
   -3.1458    5.4969    0.0000 C   0  0  0  0  0  0  0  0  0  0  0  0
   -4.3593    6.3786    0.0000 C   0  0  0  0  0  0  0  0  0  0  0  0
   -4.2025    7.8704    0.0000 C   0  0  0  0  0  0  0  0  0  0  0  0
   -5.4160    8.7521    0.0000 C   0  0  0  0  0  0  0  0  0  0  0  0
   -6.7863    8.1420    0.0000 C   0  0  0  0  0  0  0  0  0  0  0  0
   -6.9431    6.6502    0.0000 C   0  0  0  0  0  0  0  0  0  0  0  0
   -5.7296    5.7685    0.0000 C   0  0  0  0  0  0  0  0  0  0  0  0
   -4.6729    3.3950    0.0000 C   0  0  0  0  0  0  0  0  0  0  0  0
   -6.0637    3.9569    0.0000 O   0  0  0  0  0  0  0  0  0  0  0  0
   -4.8297    1.9033    0.0000 N   0  0  0  0  0  0  0  0  0  0  0  0
   -6.2000    1.2931    0.0000 C   0  0  0  0  0  0  0  0  0  0  0  0
   -6.3568   -0.1986    0.0000 C   0  0  0  0  0  0  0  0  0  0  0  0
   -7.7271   -0.8087    0.0000 C   0  0  0  0  0  0  0  0  0  0  0  0
   -8.9406    0.0729    0.0000 C   0  0  0  0  0  0  0  0  0  0  0  0
  -10.3109   -0.5372    0.0000 C   0  0  0  0  0  0  0  0  0  0  0  0
  -10.4677   -2.0290    0.0000 C   0  0  0  0  0  0  0  0  0  0  0  0
   -9.2542   -2.9106    0.0000 C   0  0  0  0  0  0  0  0  0  0  0  0
   -7.8839   -2.3005    0.0000 C   0  0  0  0  0  0  0  0  0  0  0  0
   -7.4135    2.1748    0.0000 C   0  0  0  0  0  0  0  0  0  0  0  0
   -7.2567    3.6666    0.0000 O   0  0  0  0  0  0  0  0  0  0  0  0
   -8.7838    1.5647    0.0000 N   0  0  0  0  0  0  0  0  0  0  0  0
   -9.9973    2.4464    0.0000 C   0  0  0  0  0  0  0  0  0  0  0  0
  -11.3677    1.8363    0.0000 C   0  0  0  0  0  0  0  0  0  0  0  0
  -12.5812    2.7180    0.0000 C   0  0  0  0  0  0  0  0  0  0  0  0
  -12.4244    4.2098    0.0000 C   0  0  0  0  0  0  0  0  0  0  0  0
  -13.6379    5.0914    0.0000 C   0  0  0  0  0  0  0  0  0  0  0  0
  -15.0082    4.4813    0.0000 C   0  0  0  0  0  0  0  0  0  0  0  0
  -15.1650    2.9895    0.0000 C   0  0  0  0  0  0  0  0  0  0  0  0
  -13.9515    2.1079    0.0000 C   0  0  0  0  0  0  0  0  0  0  0  0
   -9.8406    3.9382    0.0000 C   0  0  0  0  0  0  0  0  0  0  0  0
   -8.4702    4.5483    0.0000 O   0  0  0  0  0  0  0  0  0  0  0  0
  -11.0541    4.8199    0.0000 O   0  0  0  0  0  0  0  0  0  0  0  0
  1  2  2  0
  2  3  1  0
  3  4  1  0
  4  5  1  0
  5  6  1  0
  6  7  1  0
  7  8  1  0
  8  9  1  0
  9 10  1  0
 10 11  1  0
 11 12  1  0
 12 13  2  0
 13 14  1  0
 14 15  2  0
 15 16  1  0
 16 17  2  0
  2 18  1  0
 18 19  1  0
 19 20  1  0
 20 21  1  0
 21 22  1  0
 22 23  1  0
 23 24  1  0
 23 25  1  0
 25 26  1  0
 26 27  2  0
 26 28  1  0
 28 29  1  0
 29 30  1  0
 30 31  1  0
 31 32  2  0
 32 33  1  0
 33 34  2  0
 34 35  1  0
 35 36  2  0
 29 37  1  0
 37 38  2  0
 37 39  1  0
 39 40  1  0
 40 41  1  0
 41 42  1  0
 42 43  2  0
 43 44  1  0
 44 45  2  0
 45 46  1  0
 46 47  2  0
 40 48  1  0
 48 49  2  0
 48 50  1  0
 50 51  1  0
 51 52  1  0
 52 53  1  0
 53 54  2  0
 54 55  1  0
 55 56  2  0
 56 57  1  0
 57 58  2  0
 51 59  1  0
 59 60  2  0
 59 61  1  0
  8  4  1  0
 17 12  1  0
 24 18  1  0
 36 31  1  0
 47 42  1  0
 58 53  1  0
  9  6  1  0
 25 20  1  0
M  END
>  <Title>  (278) 
idAARFgen6

$$$$

     RDKit          2D

 49 50  0  0  0  0  0  0  0  0999 V2000
    7.7222   -1.5000    0.0000 C   0  0  0  0  0  0  0  0  0  0  0  0
    7.7222    0.0000    0.0000 C   0  0  0  0  0  0  0  0  0  0  0  0
    7.7222    1.5000    0.0000 C   0  0  0  0  0  0  0  0  0  0  0  0
    9.2222    0.0000    0.0000 C   0  0  0  0  0  0  0  0  0  0  0  0
    6.2222    0.0000    0.0000 C   0  0  0  0  0  0  0  0  0  0  0  0
    6.0414   -1.4891    0.0000 C   0  0  0  0  0  0  0  0  0  0  0  0
    5.5095   -2.8916    0.0000 C   0  0  0  0  0  0  0  0  0  0  0  0
    4.6574   -4.1261    0.0000 C   0  0  0  0  0  0  0  0  0  0  0  0
    3.5346   -5.1207    0.0000 C   0  0  0  0  0  0  0  0  0  0  0  0
    2.2064   -5.8178    0.0000 C   0  0  0  0  0  0  0  0  0  0  0  0
    0.7500   -6.1768    0.0000 C   0  0  0  0  0  0  0  0  0  0  0  0
   -0.7500   -6.1768    0.0000 C   0  0  0  0  0  0  0  0  0  0  0  0
   -2.2064   -5.8178    0.0000 C   0  0  0  0  0  0  0  0  0  0  0  0
   -3.5346   -5.1207    0.0000 C   0  0  0  0  0  0  0  0  0  0  0  0
   -4.6574   -4.1261    0.0000 C   0  0  0  0  0  0  0  0  0  0  0  0
   -5.5095   -2.8916    0.0000 C   0  0  0  0  0  0  0  0  0  0  0  0
   -6.0414   -1.4891    0.0000 C   0  0  0  0  0  0  0  0  0  0  0  0
   -6.2222    0.0000    0.0000 C   0  0  0  0  0  0  0  0  0  0  0  0
   -6.0414    1.4891    0.0000 C   0  0  0  0  0  0  0  0  0  0  0  0
   -5.5095    2.8916    0.0000 C   0  0  0  0  0  0  0  0  0  0  0  0
   -4.6574    4.1261    0.0000 C   0  0  0  0  0  0  0  0  0  0  0  0
   -3.5346    5.1207    0.0000 C   0  0  0  0  0  0  0  0  0  0  0  0
   -2.2064    5.8178    0.0000 C   0  0  0  0  0  0  0  0  0  0  0  0
   -0.7500    6.1768    0.0000 C   0  0  0  0  0  0  0  0  0  0  0  0
    0.7500    6.1768    0.0000 C   0  0  0  0  0  0  0  0  0  0  0  0
    2.2064    5.8178    0.0000 C   0  0  0  0  0  0  0  0  0  0  0  0
    3.5346    5.1207    0.0000 C   0  0  0  0  0  0  0  0  0  0  0  0
    4.3867    6.3552    0.0000 C   0  0  0  0  0  0  0  0  0  0  0  0
    3.7437    7.7104    0.0000 C   0  0  0  0  0  0  0  0  0  0  0  0
    5.2079    8.0358    0.0000 C   0  0  0  0  0  0  0  0  0  0  0  0
    5.5333    6.5715    0.0000 C   0  0  0  0  0  0  0  0  0  0  0  0
    4.8826    9.5000    0.0000 C   0  0  0  0  0  0  0  0  0  0  0  0
    6.6722    8.3611    0.0000 C   0  0  0  0  0  0  0  0  0  0  0  0
    3.7523    9.2104    0.0000 C   0  0  0  0  0  0  0  0  0  0  0  0
    2.5849   10.1523    0.0000 C   0  0  0  0  0  0  0  0  0  0  0  0
    2.9271   11.6128    0.0000 O   0  0  0  0  0  0  0  0  0  0  0  0
    1.1207    9.8270    0.0000 C   0  0  0  0  0  0  0  0  0  0  0  0
    0.4621    8.4793    0.0000 C   0  0  0  0  0  0  0  0  0  0  0  0
    1.1051    7.1241    0.0000 C   0  0  0  0  0  0  0  0  0  0  0  0
    2.5655    6.7819    0.0000 C   0  0  0  0  0  0  0  0  0  0  0  0
    2.0526    6.1717    0.0000 C   0  0  0  0  0  0  0  0  0  0  0  0
    3.7329    5.8400    0.0000 C   0  0  0  0  0  0  0  0  0  0  0  0
    4.6574    4.1261    0.0000 C   0  0  0  0  0  0  0  0  0  0  0  0
    5.7801    5.1207    0.0000 C   0  0  0  0  0  0  0  0  0  0  0  0
    6.7748    3.9980    0.0000 C   0  0  0  0  0  0  0  0  0  0  0  0
    5.0867    6.4508    0.0000 C   0  0  0  0  0  0  0  0  0  0  0  0
    6.9029    6.1154    0.0000 C   0  0  0  0  0  0  0  0  0  0  0  0
    5.5095    2.8916    0.0000 C   0  0  0  0  0  0  0  0  0  0  0  0
    6.0414    1.4891    0.0000 C   0  0  0  0  0  0  0  0  0  0  0  0
  1  2  1  0
  2  3  1  0
  2  4  1  0
  2  5  1  0
  5  6  1  0
  6  7  1  0
  7  8  1  0
  8  9  1  0
  9 10  1  0
 10 11  1  0
 11 12  1  0
 12 13  1  0
 13 14  1  0
 14 15  1  0
 15 16  1  0
 16 17  1  0
 17 18  1  0
 18 19  1  0
 19 20  1  0
 20 21  1  0
 21 22  1  0
 22 23  1  0
 23 24  1  0
 24 25  1  0
 25 26  1  0
 26 27  1  0
 27 28  1  0
 28 29  1  0
 29 30  1  0
 30 31  1  0
 30 32  1  0
 30 33  1  0
 29 34  1  0
 34 35  1  0
 35 36  1  0
 35 37  1  0
 37 38  1  0
 38 39  1  0
 39 40  1  0
 40 41  1  0
 40 42  1  0
 27 43  1  0
 43 44  1  0
 44 45  1  0
 44 46  1  0
 44 47  1  0
 43 48  1  0
 48 49  1  0
 49  5  1  0
 40 29  1  0
M  END
>  <Title>  (279) 
idAARGgen6

$$$$

     RDKit          2D

 26 27  0  0  0  0  0  0  0  0999 V2000
    3.9271    0.0000    0.0000 C   0  0  0  0  0  0  0  0  0  0  0  0
    2.4271    0.0000    0.0000 C   0  0  0  0  0  0  0  0  0  0  0  0
    1.9635   -1.4266    0.0000 C   0  0  0  0  0  0  0  0  0  0  0  0
    0.7500   -2.3083    0.0000 C   0  0  0  0  0  0  0  0  0  0  0  0
   -0.7500   -2.3083    0.0000 C   0  0  0  0  0  0  0  0  0  0  0  0
   -1.9635   -1.4266    0.0000 C   0  0  0  0  0  0  0  0  0  0  0  0
   -2.4271   -2.8532    0.0000 C   0  0  0  0  0  0  0  0  0  0  0  0
   -3.3035   -1.5911    0.0000 C   0  0  0  0  0  0  0  0  0  0  0  0
   -2.4271    0.0000    0.0000 C   0  0  0  0  0  0  0  0  0  0  0  0
   -3.9271    0.0000    0.0000 C   0  0  0  0  0  0  0  0  0  0  0  0
   -3.9271    1.5000    0.0000 C   0  0  0  0  0  0  0  0  0  0  0  0
   -4.0916   -1.3399    0.0000 C   0  0  0  0  0  0  0  0  0  0  0  0
   -5.4271   -0.0000    0.0000 C   0  0  0  0  0  0  0  0  0  0  0  0
   -1.9635    1.4266    0.0000 C   0  0  0  0  0  0  0  0  0  0  0  0
   -0.7500    2.3083    0.0000 C   0  0  0  0  0  0  0  0  0  0  0  0
    0.7500    2.3083    0.0000 C   0  0  0  0  0  0  0  0  0  0  0  0
    1.2135    3.7348    0.0000 C   0  0  0  0  0  0  0  0  0  0  0  0
    0.1293    4.7714    0.0000 C   0  0  0  0  0  0  0  0  0  0  0  0
    0.2638    6.2654    0.0000 C   0  0  0  0  0  0  0  0  0  0  0  0
    1.5157    7.0917    0.0000 C   0  0  0  0  0  0  0  0  0  0  0  0
    2.9422    6.6282    0.0000 C   0  0  0  0  0  0  0  0  0  0  0  0
    3.4693    5.2239    0.0000 C   0  0  0  0  0  0  0  0  0  0  0  0
    2.7000    3.9362    0.0000 C   0  0  0  0  0  0  0  0  0  0  0  0
    4.1265    3.4727    0.0000 C   0  0  0  0  0  0  0  0  0  0  0  0
    2.5655    2.4422    0.0000 C   0  0  0  0  0  0  0  0  0  0  0  0
    1.9635    1.4266    0.0000 C   0  0  0  0  0  0  0  0  0  0  0  0
  1  2  1  0
  2  3  1  0
  3  4  1  0
  4  5  1  0
  5  6  1  0
  6  7  1  0
  6  8  1  0
  6  9  1  0
  9 10  1  0
 10 11  1  0
 10 12  1  0
 10 13  1  0
  9 14  1  0
 14 15  1  0
 15 16  1  0
 16 17  1  0
 17 18  1  0
 18 19  1  0
 19 20  1  0
 20 21  1  0
 21 22  1  0
 22 23  1  0
 23 24  1  0
 23 25  1  0
 16 26  1  0
 26  2  1  0
 23 17  1  0
M  END
>  <Title>  (280) 
idAARHgen6

$$$$

     RDKit          2D

 31 33  0  0  0  0  0  0  0  0999 V2000
   -0.7500   -6.4952    0.0000 O   0  0  0  0  0  0  0  0  0  0  0  0
   -1.5000   -5.1962    0.0000 C   0  0  0  0  0  0  0  0  0  0  0  0
   -0.7500   -3.8971    0.0000 N   0  0  0  0  0  0  0  0  0  0  0  0
    0.7500   -3.8971    0.0000 C   0  0  0  0  0  0  0  0  0  0  0  0
    1.5000   -2.5981    0.0000 C   0  0  0  0  0  0  0  0  0  0  0  0
    0.7500   -1.2990    0.0000 C   0  0  0  0  0  0  0  0  0  0  0  0
    1.5000    0.0000    0.0000 C   0  0  0  0  0  0  0  0  0  0  0  0
    0.7500    1.2990    0.0000 C   0  0  0  0  0  0  0  0  0  0  0  0
   -0.7500    1.2990    0.0000 C   0  0  0  0  0  0  0  0  0  0  0  0
   -1.5000    0.0000    0.0000 C   0  0  0  0  0  0  0  0  0  0  0  0
   -0.7500   -1.2990    0.0000 C   0  0  0  0  0  0  0  0  0  0  0  0
    1.5000   -5.1962    0.0000 C   0  0  0  0  0  0  0  0  0  0  0  0
    3.0000   -5.1962    0.0000 O   0  0  0  0  0  0  0  0  0  0  0  0
    0.7500   -6.4952    0.0000 N   0  0  0  0  0  0  0  0  0  0  0  0
    1.5000   -7.7942    0.0000 C   0  0  0  0  0  0  0  0  0  0  0  0
    0.7500   -9.0933    0.0000 C   0  0  0  0  0  0  0  0  0  0  0  0
    1.5000  -10.3923    0.0000 C   0  0  0  0  0  0  0  0  0  0  0  0
    0.7500  -11.6913    0.0000 C   0  0  0  0  0  0  0  0  0  0  0  0
    1.5000  -12.9904    0.0000 C   0  0  0  0  0  0  0  0  0  0  0  0
    3.0000  -12.9904    0.0000 C   0  0  0  0  0  0  0  0  0  0  0  0
    3.7500  -11.6913    0.0000 C   0  0  0  0  0  0  0  0  0  0  0  0
    3.0000  -10.3923    0.0000 C   0  0  0  0  0  0  0  0  0  0  0  0
    3.0000   -7.7942    0.0000 C   0  0  0  0  0  0  0  0  0  0  0  0
    3.7500   -6.4952    0.0000 O   0  0  0  0  0  0  0  0  0  0  0  0
    3.7500   -9.0933    0.0000 O   0  0  0  0  0  0  0  0  0  0  0  0
   -3.0000   -5.1962    0.0000 C   0  0  0  0  0  0  0  0  0  0  0  0
   -3.7500   -3.8971    0.0000 C   0  0  0  0  0  0  0  0  0  0  0  0
   -5.2500   -3.8971    0.0000 C   0  0  0  0  0  0  0  0  0  0  0  0
   -6.0000   -5.1962    0.0000 C   0  0  0  0  0  0  0  0  0  0  0  0
   -5.2500   -6.4952    0.0000 C   0  0  0  0  0  0  0  0  0  0  0  0
   -3.7500   -6.4952    0.0000 C   0  0  0  0  0  0  0  0  0  0  0  0
  1  2  2  0
  2  3  1  0
  3  4  1  0
  4  5  1  0
  5  6  1  0
  6  7  2  0
  7  8  1  0
  8  9  2  0
  9 10  1  0
 10 11  2  0
  4 12  1  0
 12 13  2  0
 12 14  1  0
 14 15  1  0
 15 16  1  0
 16 17  1  0
 17 18  2  0
 18 19  1  0
 19 20  2  0
 20 21  1  0
 21 22  2  0
 15 23  1  0
 23 24  2  0
 23 25  1  0
  2 26  1  0
 26 27  2  0
 27 28  1  0
 28 29  2  0
 29 30  1  0
 30 31  2  0
 11  6  1  0
 22 17  1  0
 31 26  1  0
M  END
>  <Title>  (281) 
idAARIgen6

$$$$

     RDKit          2D

 57 62  0  0  0  0  0  0  0  0999 V2000
    6.7500   -3.8971    0.0000 C   0  0  0  0  0  0  0  0  0  0  0  0
    5.2500   -3.8971    0.0000 C   0  0  0  0  0  0  0  0  0  0  0  0
    4.5000   -2.5981    0.0000 O   0  0  0  0  0  0  0  0  0  0  0  0
    4.5000   -5.1962    0.0000 C   0  0  0  0  0  0  0  0  0  0  0  0
    5.2500   -6.4952    0.0000 C   0  0  0  0  0  0  0  0  0  0  0  0
    6.7500   -6.4952    0.0000 C   0  0  0  0  0  0  0  0  0  0  0  0
    7.5000   -7.7942    0.0000 C   0  0  0  0  0  0  0  0  0  0  0  0
    9.0000   -7.7942    0.0000 C   0  0  0  0  0  0  0  0  0  0  0  0
    9.7500   -6.4952    0.0000 C   0  0  0  0  0  0  0  0  0  0  0  0
    9.0000   -5.1962    0.0000 C   0  0  0  0  0  0  0  0  0  0  0  0
    7.5000   -5.1962    0.0000 C   0  0  0  0  0  0  0  0  0  0  0  0
    3.0000   -5.1962    0.0000 N   0  0  0  0  0  0  0  0  0  0  0  0
    2.2500   -3.8971    0.0000 C   0  0  0  0  0  0  0  0  0  0  0  0
    3.0000   -2.5981    0.0000 O   0  0  0  0  0  0  0  0  0  0  0  0
    0.7500   -3.8971    0.0000 C   0  0  0  0  0  0  0  0  0  0  0  0
   -0.0000   -5.1962    0.0000 C   0  0  0  0  0  0  0  0  0  0  0  0
    0.7500   -6.4952    0.0000 C   0  0  0  0  0  0  0  0  0  0  0  0
   -0.0000   -7.7942    0.0000 C   0  0  0  0  0  0  0  0  0  0  0  0
    0.7500   -9.0933    0.0000 C   0  0  0  0  0  0  0  0  0  0  0  0
    2.2500   -9.0933    0.0000 C   0  0  0  0  0  0  0  0  0  0  0  0
    3.0000   -7.7942    0.0000 C   0  0  0  0  0  0  0  0  0  0  0  0
    2.2500   -6.4952    0.0000 C   0  0  0  0  0  0  0  0  0  0  0  0
   -0.0000   -2.5981    0.0000 N   0  0  0  0  0  0  0  0  0  0  0  0
    0.7500   -1.2990    0.0000 C   0  0  0  0  0  0  0  0  0  0  0  0
    2.2500   -1.2990    0.0000 O   0  0  0  0  0  0  0  0  0  0  0  0
   -0.0000    0.0000    0.0000 C   0  0  0  0  0  0  0  0  0  0  0  0
   -1.5000    0.0000    0.0000 C   0  0  0  0  0  0  0  0  0  0  0  0
   -0.7500   -1.2990    0.0000 C   0  0  0  0  0  0  0  0  0  0  0  0
    0.7500   -1.2990    0.0000 C   0  0  0  0  0  0  0  0  0  0  0  0
    1.5000   -2.5981    0.0000 N   0  0  0  0  0  0  0  0  0  0  0  0
    0.7500   -3.8971    0.0000 C   0  0  0  0  0  0  0  0  0  0  0  0
   -0.7500   -3.8971    0.0000 O   0  0  0  0  0  0  0  0  0  0  0  0
    1.5000   -5.1962    0.0000 C   0  0  0  0  0  0  0  0  0  0  0  0
    0.7500   -6.4952    0.0000 C   0  0  0  0  0  0  0  0  0  0  0  0
    1.5000   -7.7942    0.0000 C   0  0  0  0  0  0  0  0  0  0  0  0
    0.7500   -9.0933    0.0000 C   0  0  0  0  0  0  0  0  0  0  0  0
    1.5000  -10.3923    0.0000 C   0  0  0  0  0  0  0  0  0  0  0  0
    3.0000  -10.3923    0.0000 C   0  0  0  0  0  0  0  0  0  0  0  0
    3.7500   -9.0933    0.0000 C   0  0  0  0  0  0  0  0  0  0  0  0
    3.0000   -7.7942    0.0000 C   0  0  0  0  0  0  0  0  0  0  0  0
    3.0000   -5.1962    0.0000 C   0  0  0  0  0  0  0  0  0  0  0  0
    3.7500   -3.8971    0.0000 O   0  0  0  0  0  0  0  0  0  0  0  0
    3.7500   -6.4952    0.0000 N   0  0  0  0  0  0  0  0  0  0  0  0
    5.2500   -6.4952    0.0000 C   0  0  0  0  0  0  0  0  0  0  0  0
    6.0000   -7.7942    0.0000 C   0  0  0  0  0  0  0  0  0  0  0  0
    7.5000   -7.7942    0.0000 C   0  0  0  0  0  0  0  0  0  0  0  0
    8.2500   -9.0933    0.0000 C   0  0  0  0  0  0  0  0  0  0  0  0
    9.7500   -9.0933    0.0000 C   0  0  0  0  0  0  0  0  0  0  0  0
   10.5000   -7.7942    0.0000 C   0  0  0  0  0  0  0  0  0  0  0  0
    9.7500   -6.4952    0.0000 C   0  0  0  0  0  0  0  0  0  0  0  0
    8.2500   -6.4952    0.0000 C   0  0  0  0  0  0  0  0  0  0  0  0
    6.0000   -5.1962    0.0000 C   0  0  0  0  0  0  0  0  0  0  0  0
    5.5866   -3.7542    0.0000 O   0  0  0  0  0  0  0  0  0  0  0  0
    7.4554   -4.8332    0.0000 O   0  0  0  0  0  0  0  0  0  0  0  0
    1.5000    0.0000    0.0000 C   0  0  0  0  0  0  0  0  0  0  0  0
    0.7500    1.2990    0.0000 C   0  0  0  0  0  0  0  0  0  0  0  0
   -0.7500    1.2990    0.0000 C   0  0  0  0  0  0  0  0  0  0  0  0
  1  2  1  0
  2  3  1  0
  2  4  1  0
  4  5  1  0
  5  6  1  0
  6  7  2  0
  7  8  1  0
  8  9  2  0
  9 10  1  0
 10 11  2  0
  4 12  1  0
 12 13  1  0
 13 14  2  0
 13 15  1  0
 15 16  1  0
 16 17  1  0
 17 18  2  0
 18 19  1  0
 19 20  2  0
 20 21  1  0
 21 22  2  0
 15 23  1  0
 23 24  1  0
 24 25  2  0
 24 26  1  0
 26 27  1  0
 27 28  1  0
 28 29  1  0
 29 30  1  0
 30 31  1  0
 31 32  2  0
 31 33  1  0
 33 34  1  0
 34 35  1  0
 35 36  2  0
 36 37  1  0
 37 38  2  0
 38 39  1  0
 39 40  2  0
 33 41  1  0
 41 42  2  0
 41 43  1  0
 43 44  1  0
 44 45  1  0
 45 46  1  0
 46 47  2  0
 47 48  1  0
 48 49  2  0
 49 50  1  0
 50 51  2  0
 44 52  1  0
 52 53  2  0
 52 54  1  0
 29 55  1  0
 55 56  1  0
 56 57  1  0
 11  6  1  0
 22 17  1  0
 56 26  1  0
 57 27  1  0
 40 35  1  0
 51 46  1  0
M  END
>  <Title>  (282) 
idAARJgen6

$$$$

     RDKit          2D

 44 46  0  0  0  0  0  0  0  0999 V2000
    3.4720    2.7846    0.0000 C   0  0  0  0  0  0  0  0  0  0  0  0
    2.7750    1.4564    0.0000 C   0  0  0  0  0  0  0  0  0  0  0  0
    4.2640    1.2756    0.0000 C   0  0  0  0  0  0  0  0  0  0  0  0
    4.8520   -0.1044    0.0000 C   0  0  0  0  0  0  0  0  0  0  0  0
    3.9509   -1.3035    0.0000 C   0  0  0  0  0  0  0  0  0  0  0  0
    4.5388   -2.6835    0.0000 C   0  0  0  0  0  0  0  0  0  0  0  0
    6.0279   -2.8643    0.0000 O   0  0  0  0  0  0  0  0  0  0  0  0
    3.6377   -3.8827    0.0000 C   0  0  0  0  0  0  0  0  0  0  0  0
    2.5393   -2.8611    0.0000 O   0  0  0  0  0  0  0  0  0  0  0  0
    2.5070   -4.8683    0.0000 C   0  0  0  0  0  0  0  0  0  0  0  0
    3.0949   -6.2482    0.0000 C   0  0  0  0  0  0  0  0  0  0  0  0
    4.5890   -6.1155    0.0000 C   0  0  0  0  0  0  0  0  0  0  0  0
    4.9245   -4.6535    0.0000 C   0  0  0  0  0  0  0  0  0  0  0  0
    6.3410   -0.2852    0.0000 C   0  0  0  0  0  0  0  0  0  0  0  0
    7.2422    0.9140    0.0000 O   0  0  0  0  0  0  0  0  0  0  0  0
    6.9290   -1.6651    0.0000 C   0  0  0  0  0  0  0  0  0  0  0  0
    8.4181   -1.8459    0.0000 O   0  0  0  0  0  0  0  0  0  0  0  0
    3.1339    0.0000    0.0000 C   0  0  0  0  0  0  0  0  0  0  0  0
    2.7750   -1.4564    0.0000 C   0  0  0  0  0  0  0  0  0  0  0  0
    1.7803   -2.5792    0.0000 C   0  0  0  0  0  0  0  0  0  0  0  0
    0.3778   -3.1111    0.0000 C   0  0  0  0  0  0  0  0  0  0  0  0
   -1.1113   -2.9303    0.0000 C   0  0  0  0  0  0  0  0  0  0  0  0
   -2.3458   -2.0782    0.0000 C   0  0  0  0  0  0  0  0  0  0  0  0
   -3.0429   -0.7500    0.0000 C   0  0  0  0  0  0  0  0  0  0  0  0
   -3.0429    0.7500    0.0000 C   0  0  0  0  0  0  0  0  0  0  0  0
   -2.3458    2.0782    0.0000 C   0  0  0  0  0  0  0  0  0  0  0  0
   -1.1113    2.9303    0.0000 C   0  0  0  0  0  0  0  0  0  0  0  0
    0.3778    3.1111    0.0000 C   0  0  0  0  0  0  0  0  0  0  0  0
    1.7803    2.5792    0.0000 C   0  0  0  0  0  0  0  0  0  0  0  0
    2.6324    3.8137    0.0000 C   0  0  0  0  0  0  0  0  0  0  0  0
    1.9893    5.1688    0.0000 C   0  0  0  0  0  0  0  0  0  0  0  0
    0.8112    4.2404    0.0000 C   0  0  0  0  0  0  0  0  0  0  0  0
   -0.1172    5.4185    0.0000 C   0  0  0  0  0  0  0  0  0  0  0  0
    1.3100    3.1325    0.0000 C   0  0  0  0  0  0  0  0  0  0  0  0
   -0.3669    3.3119    0.0000 C   0  0  0  0  0  0  0  0  0  0  0  0
    0.8220    6.1108    0.0000 C   0  0  0  0  0  0  0  0  0  0  0  0
    0.8306    7.6108    0.0000 C   0  0  0  0  0  0  0  0  0  0  0  0
   -0.5171    8.2694    0.0000 O   0  0  0  0  0  0  0  0  0  0  0  0
    2.0087    8.5392    0.0000 C   0  0  0  0  0  0  0  0  0  0  0  0
    3.4692    8.1971    0.0000 C   0  0  0  0  0  0  0  0  0  0  0  0
    4.1122    6.8419    0.0000 C   0  0  0  0  0  0  0  0  0  0  0  0
    3.4536    5.4942    0.0000 C   0  0  0  0  0  0  0  0  0  0  0  0
    4.9141    5.1520    0.0000 C   0  0  0  0  0  0  0  0  0  0  0  0
    3.4450    3.9942    0.0000 C   0  0  0  0  0  0  0  0  0  0  0  0
  1  2  1  0
  2  3  1  0
  3  4  1  0
  4  5  1  0
  5  6  1  0
  6  7  1  0
  6  8  1  0
  8  9  1  0
  8 10  1  0
 10 11  1  0
 11 12  1  0
 12 13  1  0
  4 14  1  0
 14 15  1  0
 14 16  1  0
 16 17  1  0
  2 18  1  0
 18 19  1  0
 19 20  1  0
 20 21  1  0
 21 22  1  0
 22 23  1  0
 23 24  1  0
 24 25  1  0
 25 26  1  0
 26 27  1  0
 27 28  1  0
 28 29  1  0
 29 30  1  0
 30 31  1  0
 31 32  1  0
 32 33  1  0
 32 34  1  0
 32 35  1  0
 31 36  1  0
 36 37  1  0
 37 38  1  0
 37 39  1  0
 39 40  1  0
 40 41  1  0
 41 42  1  0
 42 43  1  0
 42 44  1  0
 29  2  1  0
 42 31  1  0
 13  8  1  0
M  END
>  <Title>  (283) 
idAARKgen6

$$$$

     RDKit          2D

 34 37  0  0  0  0  0  0  0  0999 V2000
   -5.3597   -2.6090    0.0000 C   0  0  0  0  0  0  0  0  0  0  0  0
   -3.9108   -2.9973    0.0000 C   0  0  0  0  0  0  0  0  0  0  0  0
   -2.4619   -3.3855    0.0000 C   0  0  0  0  0  0  0  0  0  0  0  0
   -3.5226   -1.5484    0.0000 C   0  0  0  0  0  0  0  0  0  0  0  0
   -4.2990   -4.4462    0.0000 C   0  0  0  0  0  0  0  0  0  0  0  0
   -5.7990   -4.4462    0.0000 C   0  0  0  0  0  0  0  0  0  0  0  0
   -5.7990   -5.9462    0.0000 C   0  0  0  0  0  0  0  0  0  0  0  0
   -4.2990   -5.9462    0.0000 C   0  0  0  0  0  0  0  0  0  0  0  0
   -3.0000   -5.1962    0.0000 C   0  0  0  0  0  0  0  0  0  0  0  0
   -1.5000   -5.1962    0.0000 C   0  0  0  0  0  0  0  0  0  0  0  0
   -0.7500   -6.4952    0.0000 O   0  0  0  0  0  0  0  0  0  0  0  0
   -0.7500   -3.8971    0.0000 N   0  0  0  0  0  0  0  0  0  0  0  0
    0.7500   -3.8971    0.0000 C   0  0  0  0  0  0  0  0  0  0  0  0
    1.5000   -2.5981    0.0000 C   0  0  0  0  0  0  0  0  0  0  0  0
    0.7500   -1.2990    0.0000 C   0  0  0  0  0  0  0  0  0  0  0  0
    1.5000    0.0000    0.0000 C   0  0  0  0  0  0  0  0  0  0  0  0
    0.7500    1.2990    0.0000 C   0  0  0  0  0  0  0  0  0  0  0  0
   -0.7500    1.2990    0.0000 C   0  0  0  0  0  0  0  0  0  0  0  0
   -1.5000    0.0000    0.0000 C   0  0  0  0  0  0  0  0  0  0  0  0
   -0.7500   -1.2990    0.0000 C   0  0  0  0  0  0  0  0  0  0  0  0
    1.5000   -5.1962    0.0000 C   0  0  0  0  0  0  0  0  0  0  0  0
    3.0000   -5.1962    0.0000 O   0  0  0  0  0  0  0  0  0  0  0  0
    0.7500   -6.4952    0.0000 N   0  0  0  0  0  0  0  0  0  0  0  0
    1.5000   -7.7942    0.0000 C   0  0  0  0  0  0  0  0  0  0  0  0
    0.7500   -9.0933    0.0000 C   0  0  0  0  0  0  0  0  0  0  0  0
    1.5000  -10.3923    0.0000 C   0  0  0  0  0  0  0  0  0  0  0  0
    0.7500  -11.6913    0.0000 C   0  0  0  0  0  0  0  0  0  0  0  0
    1.5000  -12.9904    0.0000 C   0  0  0  0  0  0  0  0  0  0  0  0
    3.0000  -12.9904    0.0000 C   0  0  0  0  0  0  0  0  0  0  0  0
    3.7500  -11.6913    0.0000 C   0  0  0  0  0  0  0  0  0  0  0  0
    3.0000  -10.3923    0.0000 C   0  0  0  0  0  0  0  0  0  0  0  0
    3.0000   -7.7942    0.0000 C   0  0  0  0  0  0  0  0  0  0  0  0
    3.7500   -6.4952    0.0000 O   0  0  0  0  0  0  0  0  0  0  0  0
    3.7500   -9.0933    0.0000 O   0  0  0  0  0  0  0  0  0  0  0  0
  1  2  1  0
  2  3  1  0
  2  4  1  0
  2  5  1  0
  5  6  1  0
  6  7  1  0
  7  8  1  0
  8  9  1  0
  9 10  1  0
 10 11  2  0
 10 12  1  0
 12 13  1  0
 13 14  1  0
 14 15  1  0
 15 16  2  0
 16 17  1  0
 17 18  2  0
 18 19  1  0
 19 20  2  0
 13 21  1  0
 21 22  2  0
 21 23  1  0
 23 24  1  0
 24 25  1  0
 25 26  1  0
 26 27  2  0
 27 28  1  0
 28 29  2  0
 29 30  1  0
 30 31  2  0
 24 32  1  0
 32 33  2  0
 32 34  1  0
  8  5  1  0
 20 15  1  0
 31 26  1  0
  9  5  1  0
M  END
>  <Title>  (284) 
idAARLgen6

$$$$

     RDKit          2D

 61 68  0  0  0  0  0  0  0  0999 V2000
   -0.7388   -4.0800    0.0000 O   0  0  0  0  0  0  0  0  0  0  0  0
    0.7500   -3.8971    0.0000 C   0  0  0  0  0  0  0  0  0  0  0  0
    1.5000   -2.5981    0.0000 N   0  0  0  0  0  0  0  0  0  0  0  0
    0.7500   -1.2990    0.0000 C   0  0  0  0  0  0  0  0  0  0  0  0
    1.5000    0.0000    0.0000 C   0  0  0  0  0  0  0  0  0  0  0  0
    0.7500    1.2990    0.0000 C   0  0  0  0  0  0  0  0  0  0  0  0
   -0.7500    1.2990    0.0000 C   0  0  0  0  0  0  0  0  0  0  0  0
   -1.5000    0.0000    0.0000 C   0  0  0  0  0  0  0  0  0  0  0  0
   -0.7500   -1.2990    0.0000 C   0  0  0  0  0  0  0  0  0  0  0  0
   -0.0000   -0.0000    0.0000 N   0  0  0  0  0  0  0  0  0  0  0  0
    0.7500   -1.2990    0.0000 C   0  0  0  0  0  0  0  0  0  0  0  0
   -0.0000   -2.5981    0.0000 C   0  0  0  0  0  0  0  0  0  0  0  0
    0.7500   -3.8971    0.0000 C   0  0  0  0  0  0  0  0  0  0  0  0
   -0.0000   -5.1962    0.0000 C   0  0  0  0  0  0  0  0  0  0  0  0
    0.7500   -6.4952    0.0000 C   0  0  0  0  0  0  0  0  0  0  0  0
    2.2500   -6.4952    0.0000 C   0  0  0  0  0  0  0  0  0  0  0  0
    3.0000   -5.1962    0.0000 C   0  0  0  0  0  0  0  0  0  0  0  0
    2.2500   -3.8971    0.0000 C   0  0  0  0  0  0  0  0  0  0  0  0
    1.5000   -5.1962    0.0000 C   0  0  0  0  0  0  0  0  0  0  0  0
    0.7500   -6.4952    0.0000 C   0  0  0  0  0  0  0  0  0  0  0  0
    1.5000   -7.7942    0.0000 C   0  0  0  0  0  0  0  0  0  0  0  0
    3.0000   -7.7942    0.0000 C   0  0  0  0  0  0  0  0  0  0  0  0
    3.7500   -6.4952    0.0000 C   0  0  0  0  0  0  0  0  0  0  0  0
    3.0000   -5.1962    0.0000 C   0  0  0  0  0  0  0  0  0  0  0  0
    2.2500   -6.4952    0.0000 C   0  0  0  0  0  0  0  0  0  0  0  0
    1.5000   -5.1962    0.0000 C   0  0  0  0  0  0  0  0  0  0  0  0
    0.0446   -5.5591    0.0000 O   0  0  0  0  0  0  0  0  0  0  0  0
    2.2500   -3.8971    0.0000 N   0  0  0  0  0  0  0  0  0  0  0  0
    1.5000   -2.5981    0.0000 C   0  0  0  0  0  0  0  0  0  0  0  0
    2.2500   -1.2990    0.0000 C   0  0  0  0  0  0  0  0  0  0  0  0
    1.5000    0.0000    0.0000 C   0  0  0  0  0  0  0  0  0  0  0  0
    2.2500    1.2990    0.0000 C   0  0  0  0  0  0  0  0  0  0  0  0
    1.5000    2.5981    0.0000 C   0  0  0  0  0  0  0  0  0  0  0  0
    0.0000    2.5981    0.0000 C   0  0  0  0  0  0  0  0  0  0  0  0
   -0.7500    1.2990    0.0000 C   0  0  0  0  0  0  0  0  0  0  0  0
    0.0000    0.0000    0.0000 C   0  0  0  0  0  0  0  0  0  0  0  0
    0.0000   -2.5981    0.0000 C   0  0  0  0  0  0  0  0  0  0  0  0
   -0.9028   -3.7960    0.0000 O   0  0  0  0  0  0  0  0  0  0  0  0
   -0.7500   -1.2990    0.0000 N   0  0  0  0  0  0  0  0  0  0  0  0
   -2.2500   -1.2990    0.0000 C   0  0  0  0  0  0  0  0  0  0  0  0
   -3.0000    0.0000    0.0000 C   0  0  0  0  0  0  0  0  0  0  0  0
   -4.5000    0.0000    0.0000 C   0  0  0  0  0  0  0  0  0  0  0  0
   -5.2500    1.2990    0.0000 C   0  0  0  0  0  0  0  0  0  0  0  0
   -6.7500    1.2990    0.0000 C   0  0  0  0  0  0  0  0  0  0  0  0
   -7.5000    0.0000    0.0000 C   0  0  0  0  0  0  0  0  0  0  0  0
   -6.7500   -1.2990    0.0000 C   0  0  0  0  0  0  0  0  0  0  0  0
   -5.2500   -1.2990    0.0000 C   0  0  0  0  0  0  0  0  0  0  0  0
   -3.0000   -2.5981    0.0000 C   0  0  0  0  0  0  0  0  0  0  0  0
   -2.2500   -3.8971    0.0000 O   0  0  0  0  0  0  0  0  0  0  0  0
   -4.5000   -2.5981    0.0000 N   0  0  0  0  0  0  0  0  0  0  0  0
   -5.2500   -3.8971    0.0000 C   0  0  0  0  0  0  0  0  0  0  0  0
   -6.7500   -3.8971    0.0000 C   0  0  0  0  0  0  0  0  0  0  0  0
   -7.5000   -5.1962    0.0000 C   0  0  0  0  0  0  0  0  0  0  0  0
   -9.0000   -5.1962    0.0000 C   0  0  0  0  0  0  0  0  0  0  0  0
   -9.7500   -6.4952    0.0000 C   0  0  0  0  0  0  0  0  0  0  0  0
   -9.0000   -7.7942    0.0000 C   0  0  0  0  0  0  0  0  0  0  0  0
   -7.5000   -7.7942    0.0000 C   0  0  0  0  0  0  0  0  0  0  0  0
   -6.7500   -6.4952    0.0000 C   0  0  0  0  0  0  0  0  0  0  0  0
   -4.5000   -5.1962    0.0000 C   0  0  0  0  0  0  0  0  0  0  0  0
   -3.0000   -5.1962    0.0000 O   0  0  0  0  0  0  0  0  0  0  0  0
   -5.2500   -6.4952    0.0000 O   0  0  0  0  0  0  0  0  0  0  0  0
  1  2  2  0
  2  3  1  0
  3  4  1  0
  4  5  1  0
  5  6  1  0
  6  7  1  0
  7  8  1  0
  8  9  1  0
  8 10  1  0
 10 11  1  0
 11 12  1  0
 12 13  1  0
 13 14  2  0
 14 15  1  0
 15 16  2  0
 16 17  1  0
 17 18  2  0
  2 19  1  0
 19 20  1  0
 20 21  1  0
 21 22  1  0
 22 23  1  0
 23 24  1  0
 23 25  1  0
 25 26  1  0
 26 27  2  0
 26 28  1  0
 28 29  1  0
 29 30  1  0
 30 31  1  0
 31 32  2  0
 32 33  1  0
 33 34  2  0
 34 35  1  0
 35 36  2  0
 29 37  1  0
 37 38  2  0
 37 39  1  0
 39 40  1  0
 40 41  1  0
 41 42  1  0
 42 43  2  0
 43 44  1  0
 44 45  2  0
 45 46  1  0
 46 47  2  0
 40 48  1  0
 48 49  2  0
 48 50  1  0
 50 51  1  0
 51 52  1  0
 52 53  1  0
 53 54  2  0
 54 55  1  0
 55 56  2  0
 56 57  1  0
 57 58  2  0
 51 59  1  0
 59 60  2  0
 59 61  1  0
  9  4  1  0
 18 13  1  0
 24 19  1  0
 36 31  1  0
 47 42  1  0
 58 53  1  0
 10  6  1  0
 25 21  1  0
M  END
>  <Title>  (285) 
idAARMgen6

$$$$

     RDKit          2D

 71 77  0  0  0  0  0  0  0  0999 V2000
    2.9626    2.7535    0.0000 C   0  0  0  0  0  0  0  0  0  0  0  0
    2.2395    1.4392    0.0000 C   0  0  0  0  0  0  0  0  0  0  0  0
    3.7378    1.3679    0.0000 C   0  0  0  0  0  0  0  0  0  0  0  0
    4.5488    2.6297    0.0000 C   0  0  0  0  0  0  0  0  0  0  0  0
    6.0471    2.5584    0.0000 C   0  0  0  0  0  0  0  0  0  0  0  0
    6.8580    3.8203    0.0000 C   0  0  0  0  0  0  0  0  0  0  0  0
    5.8685    4.9476    0.0000 O   0  0  0  0  0  0  0  0  0  0  0  0
    8.3563    3.7489    0.0000 C   0  0  0  0  0  0  0  0  0  0  0  0
    8.1287    2.2662    0.0000 O   0  0  0  0  0  0  0  0  0  0  0  0
    9.8070    3.3676    0.0000 C   0  0  0  0  0  0  0  0  0  0  0  0
   10.6180    4.6294    0.0000 C   0  0  0  0  0  0  0  0  0  0  0  0
    9.6685    5.7906    0.0000 C   0  0  0  0  0  0  0  0  0  0  0  0
    8.2707    5.2464    0.0000 C   0  0  0  0  0  0  0  0  0  0  0  0
    3.8614    3.9630    0.0000 C   0  0  0  0  0  0  0  0  0  0  0  0
    2.6478    4.0208    0.0000 O   0  0  0  0  0  0  0  0  0  0  0  0
    4.6724    5.2249    0.0000 C   0  0  0  0  0  0  0  0  0  0  0  0
    4.3281    6.6848    0.0000 O   0  0  0  0  0  0  0  0  0  0  0  0
    2.6621    0.0000    0.0000 C   0  0  0  0  0  0  0  0  0  0  0  0
    2.2395   -1.4392    0.0000 C   0  0  0  0  0  0  0  0  0  0  0  0
    1.1059   -2.4215    0.0000 C   0  0  0  0  0  0  0  0  0  0  0  0
   -0.3789   -2.6350    0.0000 C   0  0  0  0  0  0  0  0  0  0  0  0
   -1.7433   -2.0119    0.0000 C   0  0  0  0  0  0  0  0  0  0  0  0
   -2.5543   -0.7500    0.0000 C   0  0  0  0  0  0  0  0  0  0  0  0
   -2.5543    0.7500    0.0000 C   0  0  0  0  0  0  0  0  0  0  0  0
   -1.7433    2.0119    0.0000 C   0  0  0  0  0  0  0  0  0  0  0  0
   -0.3789    2.6350    0.0000 C   0  0  0  0  0  0  0  0  0  0  0  0
    1.1059    2.4215    0.0000 C   0  0  0  0  0  0  0  0  0  0  0  0
    1.8704    3.3658    0.0000 O   0  0  0  0  0  0  0  0  0  0  0  0
    0.8220    3.8944    0.0000 C   0  0  0  0  0  0  0  0  0  0  0  0
    1.9556    4.8767    0.0000 C   0  0  0  0  0  0  0  0  0  0  0  0
    1.6717    6.3496    0.0000 C   0  0  0  0  0  0  0  0  0  0  0  0
    2.8054    7.3319    0.0000 C   0  0  0  0  0  0  0  0  0  0  0  0
    2.5215    8.8048    0.0000 C   0  0  0  0  0  0  0  0  0  0  0  0
    1.1040    9.2954    0.0000 C   0  0  0  0  0  0  0  0  0  0  0  0
   -0.0296    8.3131    0.0000 C   0  0  0  0  0  0  0  0  0  0  0  0
    0.2542    6.8402    0.0000 C   0  0  0  0  0  0  0  0  0  0  0  0
   -0.5955    4.3850    0.0000 N   0  0  0  0  0  0  0  0  0  0  0  0
   -0.8794    5.8579    0.0000 C   0  0  0  0  0  0  0  0  0  0  0  0
   -0.4211    6.5102    0.0000 O   0  0  0  0  0  0  0  0  0  0  0  0
   -2.2969    6.3485    0.0000 C   0  0  0  0  0  0  0  0  0  0  0  0
   -3.4305    5.3662    0.0000 C   0  0  0  0  0  0  0  0  0  0  0  0
   -2.0130    4.8756    0.0000 C   0  0  0  0  0  0  0  0  0  0  0  0
   -0.8794    5.8579    0.0000 C   0  0  0  0  0  0  0  0  0  0  0  0
    0.5381    5.3673    0.0000 N   0  0  0  0  0  0  0  0  0  0  0  0
    1.6717    6.3496    0.0000 C   0  0  0  0  0  0  0  0  0  0  0  0
    1.3879    7.8225    0.0000 O   0  0  0  0  0  0  0  0  0  0  0  0
    3.0892    5.8590    0.0000 C   0  0  0  0  0  0  0  0  0  0  0  0
    4.2229    6.8413    0.0000 C   0  0  0  0  0  0  0  0  0  0  0  0
    5.6404    6.3507    0.0000 C   0  0  0  0  0  0  0  0  0  0  0  0
    5.9243    4.8778    0.0000 C   0  0  0  0  0  0  0  0  0  0  0  0
    7.3418    4.3872    0.0000 C   0  0  0  0  0  0  0  0  0  0  0  0
    8.4754    5.3695    0.0000 C   0  0  0  0  0  0  0  0  0  0  0  0
    8.1915    6.8424    0.0000 C   0  0  0  0  0  0  0  0  0  0  0  0
    6.7740    7.3330    0.0000 C   0  0  0  0  0  0  0  0  0  0  0  0
    3.3731    4.3861    0.0000 C   0  0  0  0  0  0  0  0  0  0  0  0
    2.0355    3.7073    0.0000 O   0  0  0  0  0  0  0  0  0  0  0  0
    4.7906    3.8955    0.0000 N   0  0  0  0  0  0  0  0  0  0  0  0
    5.0745    2.4226    0.0000 C   0  0  0  0  0  0  0  0  0  0  0  0
    6.4920    1.9320    0.0000 C   0  0  0  0  0  0  0  0  0  0  0  0
    6.7759    0.4591    0.0000 C   0  0  0  0  0  0  0  0  0  0  0  0
    5.6423   -0.5232    0.0000 C   0  0  0  0  0  0  0  0  0  0  0  0
    5.9261   -1.9961    0.0000 C   0  0  0  0  0  0  0  0  0  0  0  0
    7.3436   -2.4867    0.0000 C   0  0  0  0  0  0  0  0  0  0  0  0
    8.4773   -1.5044    0.0000 C   0  0  0  0  0  0  0  0  0  0  0  0
    8.1934   -0.0315    0.0000 C   0  0  0  0  0  0  0  0  0  0  0  0
    3.9409    1.4403    0.0000 C   0  0  0  0  0  0  0  0  0  0  0  0
    2.6842    2.2593    0.0000 O   0  0  0  0  0  0  0  0  0  0  0  0
    4.2248   -0.0326    0.0000 O   0  0  0  0  0  0  0  0  0  0  0  0
   -1.1633    7.3308    0.0000 C   0  0  0  0  0  0  0  0  0  0  0  0
   -2.5808    7.8214    0.0000 C   0  0  0  0  0  0  0  0  0  0  0  0
   -3.7144    6.8391    0.0000 C   0  0  0  0  0  0  0  0  0  0  0  0
  1  2  1  0
  2  3  1  0
  3  4  1  0
  4  5  1  0
  5  6  1  0
  6  7  1  0
  6  8  1  0
  8  9  1  0
  8 10  1  0
 10 11  1  0
 11 12  1  0
 12 13  1  0
  4 14  1  0
 14 15  1  0
 14 16  1  0
 16 17  1  0
  2 18  1  0
 18 19  1  0
 19 20  1  0
 20 21  1  0
 21 22  1  0
 22 23  1  0
 23 24  1  0
 24 25  1  0
 25 26  1  0
 26 27  1  0
 27 28  1  0
 27 29  1  0
 29 30  1  0
 30 31  1  0
 31 32  2  0
 32 33  1  0
 33 34  2  0
 34 35  1  0
 35 36  2  0
 29 37  1  0
 37 38  1  0
 38 39  2  0
 38 40  1  0
 40 41  1  0
 41 42  1  0
 42 43  1  0
 43 44  1  0
 44 45  1  0
 45 46  2  0
 45 47  1  0
 47 48  1  0
 48 49  1  0
 49 50  2  0
 50 51  1  0
 51 52  2  0
 52 53  1  0
 53 54  2  0
 47 55  1  0
 55 56  2  0
 55 57  1  0
 57 58  1  0
 58 59  1  0
 59 60  1  0
 60 61  2  0
 61 62  1  0
 62 63  2  0
 63 64  1  0
 64 65  2  0
 58 66  1  0
 66 67  2  0
 66 68  1  0
 43 69  1  0
 69 70  1  0
 70 71  1  0
 27  2  1  0
 36 31  1  0
 70 40  1  0
 13  8  1  0
 71 41  1  0
 54 49  1  0
 65 60  1  0
M  END
>  <Title>  (286) 
idAARNgen6

$$$$

     RDKit          2D

 17 19  0  0  0  0  0  0  0  0999 V2000
   -3.3025    2.5051    0.0000 O   0  0  0  0  0  0  0  0  0  0  0  0
   -2.0890    1.6235    0.0000 C   0  0  0  0  0  0  0  0  0  0  0  0
   -0.7187    2.2336    0.0000 C   0  0  0  0  0  0  0  0  0  0  0  0
    0.3943    1.2135    0.0000 C   0  0  0  0  0  0  0  0  0  0  0  0
    1.2760    0.0000    0.0000 C   0  0  0  0  0  0  0  0  0  0  0  0
    0.3943   -1.2135    0.0000 C   0  0  0  0  0  0  0  0  0  0  0  0
   -1.0323   -0.7500    0.0000 C   0  0  0  0  0  0  0  0  0  0  0  0
   -2.2458    0.1317    0.0000 N   0  0  0  0  0  0  0  0  0  0  0  0
   -1.0323    0.7500    0.0000 N   0  0  0  0  0  0  0  0  0  0  0  0
   -2.2458    1.6317    0.0000 C   0  0  0  0  0  0  0  0  0  0  0  0
   -2.0890    3.1235    0.0000 C   0  0  0  0  0  0  0  0  0  0  0  0
   -3.3025    4.0051    0.0000 C   0  0  0  0  0  0  0  0  0  0  0  0
   -3.1458    5.4969    0.0000 C   0  0  0  0  0  0  0  0  0  0  0  0
   -4.3593    6.3786    0.0000 C   0  0  0  0  0  0  0  0  0  0  0  0
   -5.7296    5.7685    0.0000 C   0  0  0  0  0  0  0  0  0  0  0  0
   -5.8864    4.2767    0.0000 C   0  0  0  0  0  0  0  0  0  0  0  0
   -4.6729    3.3950    0.0000 C   0  0  0  0  0  0  0  0  0  0  0  0
  1  2  2  0
  2  3  1  0
  3  4  1  0
  4  5  1  0
  5  6  1  0
  6  7  1  0
  7  8  1  0
  7  9  1  0
  9 10  1  0
 10 11  1  0
 11 12  1  0
 12 13  2  0
 13 14  1  0
 14 15  2  0
 15 16  1  0
 16 17  2  0
  8  2  1  0
 17 12  1  0
  9  4  1  0
M  END
>  <Title>  (287) 
idAAROgen6

$$$$

     RDKit          2D

 20 22  0  0  0  0  0  0  0  0999 V2000
    2.6491    0.9642    0.0000 C   0  0  0  0  0  0  0  0  0  0  0  0
    1.5000    0.0000    0.0000 C   0  0  0  0  0  0  0  0  0  0  0  0
    2.6491   -0.9642    0.0000 C   0  0  0  0  0  0  0  0  0  0  0  0
    0.7500   -1.2990    0.0000 C   0  0  0  0  0  0  0  0  0  0  0  0
   -0.7500   -1.2990    0.0000 C   0  0  0  0  0  0  0  0  0  0  0  0
   -1.5000    0.0000    0.0000 C   0  0  0  0  0  0  0  0  0  0  0  0
   -0.7500    1.2990    0.0000 C   0  0  0  0  0  0  0  0  0  0  0  0
   -2.2500    1.2990    0.0000 C   0  0  0  0  0  0  0  0  0  0  0  0
   -1.5000    2.5981    0.0000 C   0  0  0  0  0  0  0  0  0  0  0  0
   -3.0000    2.5981    0.0000 C   0  0  0  0  0  0  0  0  0  0  0  0
   -3.7500    3.8971    0.0000 C   0  0  0  0  0  0  0  0  0  0  0  0
   -5.2500    3.8971    0.0000 C   0  0  0  0  0  0  0  0  0  0  0  0
   -6.1317    2.6836    0.0000 C   0  0  0  0  0  0  0  0  0  0  0  0
   -7.5583    3.1471    0.0000 C   0  0  0  0  0  0  0  0  0  0  0  0
   -7.5583    4.6471    0.0000 C   0  0  0  0  0  0  0  0  0  0  0  0
   -6.1317    5.1106    0.0000 C   0  0  0  0  0  0  0  0  0  0  0  0
   -0.7500    3.8971    0.0000 C   0  0  0  0  0  0  0  0  0  0  0  0
    0.7500    3.8971    0.0000 C   0  0  0  0  0  0  0  0  0  0  0  0
    1.5000    2.5981    0.0000 C   0  0  0  0  0  0  0  0  0  0  0  0
    0.7500    1.2990    0.0000 C   0  0  0  0  0  0  0  0  0  0  0  0
  1  2  1  0
  2  3  1  0
  2  4  1  0
  4  5  1  0
  5  6  1  0
  6  7  1  0
  7  8  1  0
  7  9  1  0
  9 10  1  0
 10 11  1  0
 11 12  1  0
 12 13  1  0
 13 14  1  0
 14 15  1  0
 15 16  1  0
  9 17  1  0
 17 18  1  0
 18 19  1  0
 19 20  1  0
 20  2  1  0
 20  7  1  0
 16 12  1  0
M  END
>  <Title>  (288) 
idAARPgen6

$$$$

     RDKit          2D

 31 35  0  0  0  0  0  0  0  0999 V2000
    3.7632   -4.7971    0.0000 C   0  0  0  0  0  0  0  0  0  0  0  0
    2.7990   -5.9462    0.0000 C   0  0  0  0  0  0  0  0  0  0  0  0
    3.7632   -7.0952    0.0000 C   0  0  0  0  0  0  0  0  0  0  0  0
    3.2502   -8.5048    0.0000 C   0  0  0  0  0  0  0  0  0  0  0  0
    4.2144   -9.6538    0.0000 C   0  0  0  0  0  0  0  0  0  0  0  0
    3.7013  -11.0634    0.0000 C   0  0  0  0  0  0  0  0  0  0  0  0
    2.2241  -11.3238    0.0000 O   0  0  0  0  0  0  0  0  0  0  0  0
    4.6655  -12.2124    0.0000 C   0  0  0  0  0  0  0  0  0  0  0  0
    5.7075  -11.1334    0.0000 O   0  0  0  0  0  0  0  0  0  0  0  0
    5.8475  -13.1359    0.0000 C   0  0  0  0  0  0  0  0  0  0  0  0
    5.3345  -14.5455    0.0000 C   0  0  0  0  0  0  0  0  0  0  0  0
    3.8354  -14.4931    0.0000 C   0  0  0  0  0  0  0  0  0  0  0  0
    3.4220  -13.0512    0.0000 C   0  0  0  0  0  0  0  0  0  0  0  0
    1.7730   -8.7652    0.0000 C   0  0  0  0  0  0  0  0  0  0  0  0
    0.8088   -7.6162    0.0000 O   0  0  0  0  0  0  0  0  0  0  0  0
    1.2599  -10.1748    0.0000 C   0  0  0  0  0  0  0  0  0  0  0  0
   -0.2173  -10.4352    0.0000 O   0  0  0  0  0  0  0  0  0  0  0  0
    1.5000   -6.6962    0.0000 C   0  0  0  0  0  0  0  0  0  0  0  0
    1.5000   -5.1962    0.0000 C   0  0  0  0  0  0  0  0  0  0  0  0
    0.7500   -3.8971    0.0000 C   0  0  0  0  0  0  0  0  0  0  0  0
    1.5000   -2.5981    0.0000 C   0  0  0  0  0  0  0  0  0  0  0  0
    0.7500   -1.2990    0.0000 C   0  0  0  0  0  0  0  0  0  0  0  0
    1.5000    0.0000    0.0000 C   0  0  0  0  0  0  0  0  0  0  0  0
    0.7500    1.2990    0.0000 C   0  0  0  0  0  0  0  0  0  0  0  0
   -0.7500    1.2990    0.0000 C   0  0  0  0  0  0  0  0  0  0  0  0
   -1.5000    0.0000    0.0000 C   0  0  0  0  0  0  0  0  0  0  0  0
    1.7010   -0.7500    0.0000 C   0  0  0  0  0  0  0  0  0  0  0  0
    3.0000   -0.0000    0.0000 C   0  0  0  0  0  0  0  0  0  0  0  0
    2.2500    1.2990    0.0000 C   0  0  0  0  0  0  0  0  0  0  0  0
    2.2500   -1.2990    0.0000 C   0  0  0  0  0  0  0  0  0  0  0  0
   -0.7500   -1.2990    0.0000 C   0  0  0  0  0  0  0  0  0  0  0  0
  1  2  1  0
  2  3  1  0
  3  4  1  0
  4  5  1  0
  5  6  1  0
  6  7  1  0
  6  8  1  0
  8  9  1  0
  8 10  1  0
 10 11  1  0
 11 12  1  0
 12 13  1  0
  4 14  1  0
 14 15  1  0
 14 16  1  0
 16 17  1  0
  2 18  1  0
 18 19  1  0
 19 20  1  0
 20 21  1  0
 21 22  1  0
 22 23  1  0
 23 24  1  0
 24 25  1  0
 25 26  1  0
 26 27  1  0
 27 28  1  0
 28 29  1  0
 28 30  1  0
 26 31  1  0
 19  2  1  0
 30 22  1  0
 13  8  1  0
 31 22  1  0
 29 24  1  0
M  END
>  <Title>  (289) 
idAARQgen6

$$$$
